  **********************************************************
                     Welcome to XBeach
 
              version 1.23.5526 XBeachX release
               date09-11-2018 11:14:26
     URL:http://svn.oss.deltares.nl/repos/xbeach/trunk/
  **********************************************************
 
  Simulation started: YYYYMMDD    hh:mm:ss     time zone (UTC)
                      20210924  11:13:51     +1000
 
  General Input Module
  Reading input parameters:
   XBeach reading fromparams.txt
  --------------------------------
  Physical processes:
                 wavemodel =surfbeat
                    cyclic =0 (no record found, default value used)
                     swave =1 (no record found, default value used)
                single_dir =0 (no record found, default value used)
                     lwave =1 (no record found, default value used)
                      flow =1 (no record found, default value used)
                  sedtrans =1 (no record found, default value used)
                morphology =1 (no record found, default value used)
               avalanching =1 (no record found, default value used)
                    gwflow =0 (no record found, default value used)
                     ships =0 (no record found, default value used)
                vegetation =0 (no record found, default value used)
                  setbathy =0 (no record found, default value used)
                 viscosity =1 (no record found, default value used)
                 advection =1 (no record found, default value used)
                      wind =1 (no record found, default value used)
  --------------------------------
  Grid parameters:
                  gridform =xbeach (no record found, default value used)
                      xori =.0000 (no record found, default value used)
                      yori =.0000 (no record found, default value used)
                      alfa =.0000 (no record found, default value used)
                        nx =153
                        ny =68
                    posdwn =-1.0000
                   depfile =z.grd
                     vardx =1
                        dx =-1.0000 (no record found, default value used)
                        dy =-1.0000 (no record found, default value used)
                     xfile =x.grd
                     yfile =y.grd
                        nz =1 (no record found, default value used)
                  thetamin =.0000
                  thetamax =180.0000
                 thetanaut =1
                    dtheta =15.0000
  --------------------------------
  Model time parameters:
                       CFL =.7000 (no record found, default value used)
                     dtset =.0000 (no record found, default value used)
                     tstop =648000.0000
                  maxdtfac =50.0000 (no record found, default value used)
  --------------------------------
  Physical constants:
                       rho =1025.0000
                         g =9.8100
                depthscale =1.0000 (no record found, default value used)
  --------------------------------
  Initial conditions:
                zsinitfile = None specified
  --------------------------------
  Wave boundary condition parameters:
                   wbctype =jonstable
                    bcfile =loclist.txt
                     taper =100.0000 (no record found, default value used)
                      nmax =.8000 (no record found, default value used)
               lateralwave =neumann (no record found, default value used)
  --------------------------------
  Wave-spectrum boundary condition parameters:
                    random =1 (no record found, default value used)
                   fcutoff =.0000 (no record found, default value used)
                   trepfac =.0100 (no record found, default value used)
                   sprdthr =.0800 (no record found, default value used)
                Tm01switch =0 (no record found, default value used)
                wbcversion =3
              nspectrumloc =10
  --------------------------------
  Flow boundary condition parameters:
                     front =abs_2d
                      left =wall
                     right =wall
                      back =abs_2d
                       ARC =1 (no record found, default value used)
                     order =2.0000 (no record found, default value used)
                  highcomp =0 (no record found, default value used)
                  freewave =0 (no record found, default value used)
                      epsi =-1.0000 (no record found, default value used)
                  tidetype =velocity (no record found, default value used)
  --------------------------------
  Tide boundary conditions:
                   tideloc =1
                   zs0file =tide.txt
  --------------------------------
  Discharge boundary conditions:
            disch_loc_file = None specified
     disch_timeseries_file = None specified
                ndischarge =0 (no record found, default value used)
               ntdischarge =0 (no record found, default value used)
                      beta =.1000 (no record found, default value used)
  --------------------------------
  Wave breaking parameters:
                     break =roelvink2 (no record found, default value used)
                     gamma =.5500 (no record found, default value used)
                    gammax =2.0000 (no record found, default value used)
                     alpha =1.0000 (no record found, default value used)
                         n =10.0000 (no record found, default value used)
                     delta =.0000 (no record found, default value used)
                        fw =.0000 (no record found, default value used)
                    fwfile = None specified
                  fwcutoff =1000.0000 (no record found, default value used)
              breakerdelay =1.0000 (no record found, default value used)
  --------------------------------
  Roller parameters:
                    roller =1 (no record found, default value used)
                       rfb =0 (no record found, default value used)
  --------------------------------
  Wave-current interaction parameters:
                       wci =0 (no record found, default value used)
                      hwci =.1000 (no record found, default value used)
                   hwcimax =100.0000 (no record found, default value used)
                      cats =4.0000 (no record found, default value used)
  --------------------------------
  Flow parameters:
               bedfriction =chezy (no record found, default value used)
               bedfricfile = None specified
               bedfriccoef =55.0000 (no record found, default value used)
                     droot =.5000 (no record found, default value used)
                     dstem =.5000 (no record found, default value used)
                     maxcf =.0400 (no record found, default value used)
                       nuh =.1000 (no record found, default value used)
                    nuhfac =1.0000 (no record found, default value used)
                      smag =1 (no record found, default value used)
  --------------------------------
  Coriolis force parameters:
                    wearth =.0417 (no record found, default value used)
                       lat =.0000 (no record found, default value used)
  --------------------------------
  Wind parameters:
                      rhoa =1.2500 (no record found, default value used)
                        Cd =.0020 (no record found, default value used)
                  windfile = None specified
                     windv =.0000 (no record found, default value used)
                    windth =270.0000 (no record found, default value used)
  --------------------------------
  Sediment transport parameters:
                      form =vanthiel_vanrijn (no record found, default value use
 d)
                  waveform =vanthiel (no record found, default value used)
                       sws =1 (no record found, default value used)
                       lws =1 (no record found, default value used)
                     BRfac =1.0000 (no record found, default value used)
                     facua =.1000 (no record found, default value used)
                     facSk =.1000 (no record found, default value used)
                     facAs =.3300
                     Tbfac =1.0000 (no record found, default value used)
                      turb =bore_averaged (no record found, default value used)
                   turbadv =none (no record found, default value used)
                       sus =1 (no record found, default value used)
                       bed =1 (no record found, default value used)
                      bulk =0 (no record found, default value used)
                     facsl =.1500 (no record found, default value used)
                        z0 =.0060 (no record found, default value used)
                      smax =-1.0000 (no record found, default value used)
               bdslpeffmag =roelvink_total (no record found, default value used)
               bdslpeffini =none (no record found, default value used)
               bdslpeffdir =none (no record found, default value used)
               reposeangle =30.0000 (no record found, default value used)
                     tsfac =.1000 (no record found, default value used)
                     Tsmin =.5000 (no record found, default value used)
                     facDc =1.0000 (no record found, default value used)
                       lwt =0 (no record found, default value used)
                     betad =1.0000 (no record found, default value used)
                fallvelred =0 (no record found, default value used)
                 dilatancy =0 (no record found, default value used)
  --------------------------------
  Bed composition parameters:
                       ngd =1 (no record found, default value used)
                        nd =3 (no record found, default value used)
                       por =.4000 (no record found, default value used)
                       D50 =.0004
                       D90 =.0007
                      rhos =2650.0000 (no record found, default value used)
                       dzg =.1000 (no record found, default value used)
                      dzg1 =.1000 (no record found, default value used)
                      dzg2 =.1000 (no record found, default value used)
                      dzg3 =.1000 (no record found, default value used)
   sedcal =1.0000 (no record found, default value used)
   ucrcal =1.0000 (no record found, default value used)
  --------------------------------
  Morphology parameters:
                    morfac =10.0000
                 morfacopt =1 (no record found, default value used)
                  morstart =43200.0000
                   morstop =144000.0000
                    wetslp =.3000 (no record found, default value used)
                    dryslp =1.0000 (no record found, default value used)
                   hswitch =.1000 (no record found, default value used)
                     dzmax =.0500 (no record found, default value used)
                    struct =1
                  ne_layer =ne_layer.grd
  --------------------------------
  Output variables:
                   timings =1 (no record found, default value used)
                    tunits = None specified
                    tstart =.0000
                      tint =1.0000 (no record found, default value used)
                  tsglobal = None specified
                     tintg =900.0000
                  tspoints = None specified
                     tintp =60.0000
                    tsmean = None specified
                     tintm =900.0000
                nglobalvar =3
   nglobalvar: Will generate global output for variable:zb
   nglobalvar: Will generate global output for variable:dzbnow
   nglobalvar: Will generate global output for variable:dzav
                   npoints =1
  Warning: variable nrugauge69 > recommended value of50
                 npointvar =4
   Output pointpoint001 xpoint:342946.00   ypoint:6267894.00
   npointvar: Will generate point output for variable:H
   npointvar: Will generate point output for variable:zs
   npointvar: Will generate point output for variable:zb
   npointvar: Will generate point output for variable:D
  Order of point output variables stored in 'pointvars.idx'
   Output runup gaugerugau001 xpoint:343531.53   ypoint:6268958.55
   Output runup gaugerugau002 xpoint:343503.99   ypoint:6268928.84
   Output runup gaugerugau003 xpoint:343477.97   ypoint:6268898.65
   Output runup gaugerugau004 xpoint:343453.48   ypoint:6268867.88
   Output runup gaugerugau005 xpoint:343430.60   ypoint:6268836.41
   Output runup gaugerugau006 xpoint:343409.40   ypoint:6268803.98
   Output runup gaugerugau007 xpoint:343389.71   ypoint:6268770.24
   Output runup gaugerugau008 xpoint:343370.95   ypoint:6268734.95
   Output runup gaugerugau009 xpoint:343352.17   ypoint:6268698.18
   Output runup gaugerugau010 xpoint:343332.22   ypoint:6268660.69
   Output runup gaugerugau011 xpoint:343310.80   ypoint:6268623.91
   Output runup gaugerugau012 xpoint:343289.14   ypoint:6268588.34
   Output runup gaugerugau013 xpoint:343268.16   ypoint:6268553.64
   Output runup gaugerugau014 xpoint:343248.40   ypoint:6268519.41
   Output runup gaugerugau015 xpoint:343230.24   ypoint:6268485.28
   Output runup gaugerugau016 xpoint:343213.79   ypoint:6268450.98
   Output runup gaugerugau017 xpoint:343199.11   ypoint:6268416.45
   Output runup gaugerugau018 xpoint:343186.36   ypoint:6268381.65
   Output runup gaugerugau019 xpoint:343175.75   ypoint:6268346.50
   Output runup gaugerugau020 xpoint:343167.60   ypoint:6268310.71
   Output runup gaugerugau021 xpoint:343161.81   ypoint:6268273.58
   Output runup gaugerugau022 xpoint:343157.45   ypoint:6268234.52
   Output runup gaugerugau023 xpoint:343152.98   ypoint:6268193.08
   Output runup gaugerugau024 xpoint:343145.50   ypoint:6268149.60
   Output runup gaugerugau025 xpoint:343132.91   ypoint:6268108.17
   Output runup gaugerugau026 xpoint:343120.09   ypoint:6268071.29
   Output runup gaugerugau027 xpoint:343111.22   ypoint:6268037.18
   Output runup gaugerugau028 xpoint:343108.01   ypoint:6268003.03
   Output runup gaugerugau029 xpoint:343109.24   ypoint:6267966.34
   Output runup gaugerugau030 xpoint:343112.39   ypoint:6267926.06
   Output runup gaugerugau031 xpoint:343114.08   ypoint:6267881.66
   Output runup gaugerugau032 xpoint:343109.62   ypoint:6267835.90
   Output runup gaugerugau033 xpoint:343101.27   ypoint:6267793.66
   Output runup gaugerugau034 xpoint:343093.83   ypoint:6267754.81
   Output runup gaugerugau035 xpoint:343089.56   ypoint:6267717.41
   Output runup gaugerugau036 xpoint:343088.42   ypoint:6267679.48
   Output runup gaugerugau037 xpoint:343088.99   ypoint:6267640.30
   Output runup gaugerugau038 xpoint:343090.09   ypoint:6267599.82
   Output runup gaugerugau039 xpoint:343090.60   ypoint:6267558.24
   Output runup gaugerugau040 xpoint:343089.56   ypoint:6267516.48
   Output runup gaugerugau041 xpoint:343087.56   ypoint:6267475.66
   Output runup gaugerugau042 xpoint:343085.74   ypoint:6267436.10
   Output runup gaugerugau043 xpoint:343085.17   ypoint:6267397.70
   Output runup gaugerugau044 xpoint:343087.05   ypoint:6267359.95
   Output runup gaugerugau045 xpoint:343091.83   ypoint:6267321.40
   Output runup gaugerugau046 xpoint:343098.30   ypoint:6267280.62
   Output runup gaugerugau047 xpoint:343103.87   ypoint:6267236.62
   Output runup gaugerugau048 xpoint:343104.56   ypoint:6267191.22
   Output runup gaugerugau049 xpoint:343102.04   ypoint:6267148.38
   Output runup gaugerugau050 xpoint:343099.98   ypoint:6267108.20
   Output runup gaugerugau051 xpoint:343099.97   ypoint:6267069.48
   Output runup gaugerugau052 xpoint:343102.25   ypoint:6267031.04
   Output runup gaugerugau053 xpoint:343106.09   ypoint:6266992.35
   Output runup gaugerugau054 xpoint:343110.93   ypoint:6266953.37
   Output runup gaugerugau055 xpoint:343116.39   ypoint:6266914.12
   Output runup gaugerugau056 xpoint:343122.13   ypoint:6266874.66
   Output runup gaugerugau057 xpoint:343127.85   ypoint:6266835.35
   Output runup gaugerugau058 xpoint:343133.94   ypoint:6266796.71
   Output runup gaugerugau059 xpoint:343141.22   ypoint:6266758.89
   Output runup gaugerugau060 xpoint:343150.41   ypoint:6266721.73
   Output runup gaugerugau061 xpoint:343162.03   ypoint:6266684.89
   Output runup gaugerugau062 xpoint:343176.39   ypoint:6266647.85
   Output runup gaugerugau063 xpoint:343193.14   ypoint:6266610.00
   Output runup gaugerugau064 xpoint:343211.76   ypoint:6266571.00
   Output runup gaugerugau065 xpoint:343231.78   ypoint:6266530.52
   Output runup gaugerugau066 xpoint:343252.44   ypoint:6266487.90
   Output runup gaugerugau067 xpoint:343271.27   ypoint:6266443.10
   Output runup gaugerugau068 xpoint:343289.31   ypoint:6266399.32
   Output runup gaugerugau069 xpoint:343311.00   ypoint:6266356.85
                 nrugdepth =1 (no record found, default value used)
   rugdepth =.0000 (no record found, default value used)
                  nmeanvar =8
   nmeanvar: Will generate mean, min, max and variance output for variable:D
   nmeanvar: Will generate mean, min, max and variance output for variable:break
 ing
   nmeanvar: Will generate mean, min, max and variance output for variable:u
   nmeanvar: Will generate mean, min, max and variance output for variable:v
   nmeanvar: Will generate mean, min, max and variance output for variable:H
   nmeanvar: Will generate mean, min, max and variance output for variable:hh
   nmeanvar: Will generate mean, min, max and variance output for variable:zs
   nmeanvar: Will generate mean, min, max and variance output for variable:zs0
              outputformat =netcdf
           outputprecision =double (no record found, default value used)
                ncfilename = None specified
  netcdf output to:xboutput.nc
              remdryoutput =1 (no record found, default value used)
  --------------------------------
  Output projection:
                projection = None specified
                    rotate =1 (no record found, default value used)
  --------------------------------
  Wave numerics parameters:
                    scheme =warmbeam (no record found, default value used)
                    snells =0 (no record found, default value used)
  --------------------------------
  Flow numerics parameters:
                       eps =.0050 (no record found, default value used)
                    eps_sd =.5000 (no record found, default value used)
                      umin =.0000 (no record found, default value used)
                      hmin =.2000 (no record found, default value used)
                  secorder =0 (no record found, default value used)
  --------------------------------
  Sediment transport numerics parameters:
                  thetanum =1.0000 (no record found, default value used)
                      cmax =.1000 (no record found, default value used)
  --------------------------------
  Bed update numerics parameters:
                   frac_dz =.7000 (no record found, default value used)
                    nd_var =2 (no record found, default value used)
                     split =1.0100 (no record found, default value used)
                     merge =.0100 (no record found, default value used)
  --------------------------------
  Finished reading input parameters
  --------------------------------
  Warning: Setting rugdepth to minimum value greater than eps (.00500)
  ------------------------------------
  Building Grid and Bathymetry
  ------------------------------------
  Initializing .....
   readtide: reading tide time series fromtide.txt ...
  --------------------------------
  Initializing spectral wave boundary conditions
  Spectrum1 placed at n =1
  Distance spectrum to grid:147.187
  Spectrum2 placed at n =1
  Distance spectrum to grid:147.187
  Spectrum3 placed at n =1
  Distance spectrum to grid:110.039
  Spectrum4 placed at n =1
  Distance spectrum to grid:172.337
  Spectrum5 placed at n =2
  Distance spectrum to grid:232.835
  Spectrum6 placed at n =1
  Distance spectrum to grid:147.187
  Spectrum7 placed at n =1
  Distance spectrum to grid:147.187
  Spectrum8 placed at n =1
  Distance spectrum to grid:147.187
  Spectrum9 placed at n =1
  Distance spectrum to grid:197.697
  Spectrum10 placed at n =1
  Distance spectrum to grid:72.284
  --------------------------------
 Distance output point001(342946.00,6267894.00) to gridpoint(15,31): 1.03 m
  Runup gauge at grid line iy=1
  Runup gauge at grid line iy=2
  Runup gauge at grid line iy=3
  Runup gauge at grid line iy=4
  Runup gauge at grid line iy=5
  Runup gauge at grid line iy=6
  Runup gauge at grid line iy=7
  Runup gauge at grid line iy=8
  Runup gauge at grid line iy=9
  Runup gauge at grid line iy=10
  Runup gauge at grid line iy=11
  Runup gauge at grid line iy=12
  Runup gauge at grid line iy=13
  Runup gauge at grid line iy=14
  Runup gauge at grid line iy=15
  Runup gauge at grid line iy=16
  Runup gauge at grid line iy=17
  Runup gauge at grid line iy=18
  Runup gauge at grid line iy=19
  Runup gauge at grid line iy=20
  Runup gauge at grid line iy=21
  Runup gauge at grid line iy=22
  Runup gauge at grid line iy=23
  Runup gauge at grid line iy=24
  Runup gauge at grid line iy=25
  Runup gauge at grid line iy=26
  Runup gauge at grid line iy=27
  Runup gauge at grid line iy=28
  Runup gauge at grid line iy=29
  Runup gauge at grid line iy=30
  Runup gauge at grid line iy=31
  Runup gauge at grid line iy=32
  Runup gauge at grid line iy=33
  Runup gauge at grid line iy=34
  Runup gauge at grid line iy=35
  Runup gauge at grid line iy=36
  Runup gauge at grid line iy=37
  Runup gauge at grid line iy=38
  Runup gauge at grid line iy=39
  Runup gauge at grid line iy=40
  Runup gauge at grid line iy=41
  Runup gauge at grid line iy=42
  Runup gauge at grid line iy=43
  Runup gauge at grid line iy=44
  Runup gauge at grid line iy=45
  Runup gauge at grid line iy=46
  Runup gauge at grid line iy=47
  Runup gauge at grid line iy=48
  Runup gauge at grid line iy=49
  Runup gauge at grid line iy=50
  Runup gauge at grid line iy=51
  Runup gauge at grid line iy=52
  Runup gauge at grid line iy=53
  Runup gauge at grid line iy=54
  Runup gauge at grid line iy=55
  Runup gauge at grid line iy=56
  Runup gauge at grid line iy=57
  Runup gauge at grid line iy=58
  Runup gauge at grid line iy=59
  Runup gauge at grid line iy=60
  Runup gauge at grid line iy=61
  Runup gauge at grid line iy=62
  Runup gauge at grid line iy=63
  Runup gauge at grid line iy=64
  Runup gauge at grid line iy=65
  Runup gauge at grid line iy=66
  Runup gauge at grid line iy=67
  Runup gauge at grid line iy=68
  Runup gauge at grid line iy=69
  NetCDF outputformat
   Creating netcdf variable:zb
   Creating netcdf variable:dzbnow
   Creating netcdf variable:dzav
   Creating netcdf variable:point_H
   Creating netcdf variable:point_zs
   Creating netcdf variable:point_zb
   Creating netcdf variable:point_D
   Creating netcdf variable:point_xz
   Creating netcdf variable:point_yz
   Creating netcdf variable:D_mean
   Creating netcdf variable:D_var
   Creating netcdf variable:D_min
   Creating netcdf variable:D_max
   Creating netcdf variable:u_mean
   Creating netcdf variable:u_var
   Creating netcdf variable:u_min
   Creating netcdf variable:u_max
   Creating netcdf variable:v_mean
   Creating netcdf variable:v_var
   Creating netcdf variable:v_min
   Creating netcdf variable:v_max
   Creating netcdf variable:H_mean
   Creating netcdf variable:H_var
   Creating netcdf variable:H_min
   Creating netcdf variable:H_max
   Creating netcdf variable:hh_mean
   Creating netcdf variable:hh_var
   Creating netcdf variable:hh_min
   Creating netcdf variable:hh_max
   Creating netcdf variable:zs_mean
   Creating netcdf variable:zs_var
   Creating netcdf variable:zs_min
   Creating netcdf variable:zs_max
   Creating netcdf variable:zs0_mean
   Creating netcdf variable:zs0_var
   Creating netcdf variable:zs0_min
   Creating netcdf variable:zs0_max
  Writing file definition.
  Writing point vars.
  Setting up boundary conditions
  --------------------------------
  Calculating spectral wave boundary conditions
  --------------------------------
  Reading spectrum at location1
   waveparams: Reading from table:wavefile1.txt ...
 Hm0 =    1.10800000000000     
  Reading spectrum at location2
   waveparams: Reading from table:wavefile2.txt ...
 Hm0 =    1.10800000000000     
  Reading spectrum at location3
   waveparams: Reading from table:wavefile3.txt ...
 Hm0 =    1.10800000000000     
  Reading spectrum at location4
   waveparams: Reading from table:wavefile4.txt ...
 Hm0 =    1.10800000000000     
  Reading spectrum at location5
   waveparams: Reading from table:wavefile5.txt ...
 Hm0 =    1.10800000000000     
  Reading spectrum at location6
   waveparams: Reading from table:wavefile6.txt ...
 Hm0 =    1.10800000000000     
  Reading spectrum at location7
   waveparams: Reading from table:wavefile7.txt ...
 Hm0 =    1.10800000000000     
  Reading spectrum at location8
   waveparams: Reading from table:wavefile8.txt ...
 Hm0 =    1.10800000000000     
  Reading spectrum at location9
   waveparams: Reading from table:wavefile9.txt ...
 Hm0 =    1.10800000000000     
  Reading spectrum at location10
   waveparams: Reading from table:wavefile10.txt ...
 Hm0 =    1.10800000000000     
  Interpreting spectrum at location1
  Values calculated from interpolated spectrum:
  Hm0       =1.11 m
  Trep      =12.88 s
  Mean dir  =109.96 degN
  Interpreting spectrum at location2
  Values calculated from interpolated spectrum:
  Hm0       =1.11 m
  Trep      =12.88 s
  Mean dir  =109.96 degN
  Interpreting spectrum at location3
  Values calculated from interpolated spectrum:
  Hm0       =1.11 m
  Trep      =12.88 s
  Mean dir  =109.96 degN
  Interpreting spectrum at location4
  Values calculated from interpolated spectrum:
  Hm0       =1.11 m
  Trep      =12.88 s
  Mean dir  =109.96 degN
  Interpreting spectrum at location5
  Values calculated from interpolated spectrum:
  Hm0       =1.11 m
  Trep      =12.88 s
  Mean dir  =109.96 degN
  Interpreting spectrum at location6
  Values calculated from interpolated spectrum:
  Hm0       =1.11 m
  Trep      =12.88 s
  Mean dir  =109.96 degN
  Interpreting spectrum at location7
  Values calculated from interpolated spectrum:
  Hm0       =1.11 m
  Trep      =12.88 s
  Mean dir  =109.96 degN
  Interpreting spectrum at location8
  Values calculated from interpolated spectrum:
  Hm0       =1.11 m
  Trep      =12.88 s
  Mean dir  =109.96 degN
  Interpreting spectrum at location9
  Values calculated from interpolated spectrum:
  Hm0       =1.11 m
  Trep      =12.88 s
  Mean dir  =109.96 degN
  Interpreting spectrum at location10
  Values calculated from interpolated spectrum:
  Hm0       =1.11 m
  Trep      =12.88 s
  Mean dir  =109.96 degN
  Overall Trep from all spectra calculated:12.88 s
  Calculating Fourier components
  5.0% done
  10.0% done
  15.0% done
  20.0% done
  25.0% done
  30.0% done
  35.0% done
  40.0% done
  45.0% done
  50.0% done
  55.0% done
  60.0% done
  65.0% done
  70.0% done
  75.0% done
  80.0% done
  85.0% done
  90.0% done
  95.0% done
  100.0% done
  Wave energy outside computational domain at offshore boundary:.0%
  Calculating short wave time series for theta bin1 of12
  Calculating short wave time series for theta bin2 of12
  Calculating short wave time series for theta bin3 of12
  Calculating short wave time series for theta bin4 of12
  Calculating short wave time series for theta bin5 of12
  Calculating short wave time series for theta bin6 of12
  Calculating short wave time series for theta bin7 of12
  Calculating short wave time series for theta bin8 of12
  Calculating short wave time series for theta bin9 of12
  Calculating short wave time series for theta bin10 of12
  Calculating short wave time series for theta bin11 of12
  Calculating short wave time series for theta bin12 of12
 Calculating wave energy envelope at boundary.
  5.8% done
  10.1% done
  15.9% done
  20.3% done
  26.1% done
  30.4% done
  36.2% done
  40.6% done
  46.4% done
  50.7% done
  55.1% done
  60.9% done
  65.2% done
  71.0% done
  75.4% done
  81.2% done
  85.5% done
  91.3% done
  95.7% done
  100.0% done
  Wave bin1 contains.14% of total energy
  Wave bin2 contains2.12% of total energy
  Wave bin3 contains8.10% of total energy
  Wave bin4 contains18.83% of total energy
  Wave bin5 contains28.53% of total energy
  Wave bin6 contains15.76% of total energy
  Wave bin7 contains18.17% of total energy
  Wave bin8 contains2.56% of total energy
  Wave bin9 contains5.79% of total energy
  Wave bin10 contains.00% of total energy
  Wave bin11 contains.00% of total energy
  Wave bin12 contains.00% of total energy
   Writing wave energy toE_series00001.bcf ...
  file done
  Calculating primary wave interaction
  5.0% done
  10.1% done
  15.1% done
  20.1% done
  25.1% done
  30.2% done
  35.2% done
  40.2% done
  45.2% done
  50.3% done
  55.3% done
  60.3% done
  65.3% done
  70.4% done
  75.4% done
  80.4% done
  85.4% done
  90.5% done
  95.5% done
  100.0% done
  Warning: shallow water so long wave variance is reduced using par%nmax
  Calculating flux at boundary
  5.8% done
  10.1% done
  15.9% done
  20.3% done
  26.1% done
  30.4% done
  36.2% done
  40.6% done
  46.4% done
  50.7% done
  55.1% done
  60.9% done
  65.2% done
  71.0% done
  75.4% done
  81.2% done
  85.5% done
  91.3% done
  95.7% done
  100.0% done
   Writing long wave mass flux toq_series00001.bcf ...
  file done
  --------------------------------
  Spectral wave boundary conditions complete
  --------------------------------
  Boundary conditions complete, starting computation
  Simulation  0.0 percent complete. Average dt  0.159 seconds
  Time remaining 13 hours and 54 minutes
  Simulation  0.0 percent complete. Average dt  0.158 seconds
  Time remaining  8 hours and  3 minutes
  Simulation  0.1 percent complete. Average dt  0.158 seconds
  Time remaining  7 hours and 13 minutes
  Simulation  0.1 percent complete. Average dt  0.158 seconds
  Time remaining  6 hours and 55 minutes
  Simulation  0.1 percent complete. Average dt  0.158 seconds
  Time remaining  6 hours and 43 minutes
  Simulation  0.1 percent complete. Average dt  0.158 seconds
  Time remaining  6 hours and 18 minutes
  Simulation  0.1 percent complete. Average dt  0.158 seconds
  Time remaining  6 hours and 29 minutes
  Simulation  0.2 percent complete. Average dt  0.158 seconds
  Time remaining  6 hours and 16 minutes
  Simulation  0.2 percent complete. Average dt  0.158 seconds
  Time remaining  6 hours and  5 minutes
  Simulation  0.2 percent complete. Average dt  0.156 seconds
  Time remaining  6 hours and 12 minutes
  Simulation  0.2 percent complete. Average dt  0.157 seconds
  Time remaining  6 hours and 11 minutes
  Simulation  0.3 percent complete. Average dt  0.158 seconds
  Time remaining  6 hours and  6 minutes
  Simulation  0.3 percent complete. Average dt  0.158 seconds
  Time remaining  6 hours and  5 minutes
  Simulation  0.3 percent complete. Average dt  0.156 seconds
  Time remaining  6 hours and 21 minutes
  Simulation  0.3 percent complete. Average dt  0.154 seconds
  Time remaining  6 hours and 17 minutes
  Simulation  0.4 percent complete. Average dt  0.158 seconds
  Time remaining  5 hours and 60 minutes
  Simulation  0.4 percent complete. Average dt  0.157 seconds
  Time remaining  6 hours and  5 minutes
  Simulation  0.4 percent complete. Average dt  0.156 seconds
  Time remaining  6 hours and  6 minutes
  Simulation  0.4 percent complete. Average dt  0.158 seconds
  Time remaining  5 hours and 57 minutes
  Simulation  0.4 percent complete. Average dt  0.158 seconds
  Time remaining  5 hours and 60 minutes
  Simulation  0.5 percent complete. Average dt  0.158 seconds
  Time remaining  5 hours and 56 minutes
  Simulation  0.5 percent complete. Average dt  0.156 seconds
  Time remaining  5 hours and 59 minutes
  Simulation  0.5 percent complete. Average dt  0.158 seconds
  Time remaining  6 hours and  2 minutes
  Simulation  0.5 percent complete. Average dt  0.157 seconds
  Time remaining  6 hours and  5 minutes
  --------------------------------
  Calculating spectral wave boundary conditions
  --------------------------------
  Reading spectrum at location1
   waveparams: Reading from table:wavefile1.txt ...
 Hm0 =    1.10800000000000     
  Reading spectrum at location2
   waveparams: Reading from table:wavefile2.txt ...
 Hm0 =    1.10800000000000     
  Reading spectrum at location3
   waveparams: Reading from table:wavefile3.txt ...
 Hm0 =    1.10800000000000     
  Reading spectrum at location4
   waveparams: Reading from table:wavefile4.txt ...
 Hm0 =    1.10800000000000     
  Reading spectrum at location5
   waveparams: Reading from table:wavefile5.txt ...
 Hm0 =    1.10800000000000     
  Reading spectrum at location6
   waveparams: Reading from table:wavefile6.txt ...
 Hm0 =    1.10800000000000     
  Reading spectrum at location7
   waveparams: Reading from table:wavefile7.txt ...
 Hm0 =    1.10800000000000     
  Reading spectrum at location8
   waveparams: Reading from table:wavefile8.txt ...
 Hm0 =    1.10800000000000     
  Reading spectrum at location9
   waveparams: Reading from table:wavefile9.txt ...
 Hm0 =    1.10800000000000     
  Reading spectrum at location10
   waveparams: Reading from table:wavefile10.txt ...
 Hm0 =    1.10800000000000     
  Interpreting spectrum at location1
  Values calculated from interpolated spectrum:
  Hm0       =1.11 m
  Trep      =12.88 s
  Mean dir  =109.96 degN
  Interpreting spectrum at location2
  Values calculated from interpolated spectrum:
  Hm0       =1.11 m
  Trep      =12.88 s
  Mean dir  =109.96 degN
  Interpreting spectrum at location3
  Values calculated from interpolated spectrum:
  Hm0       =1.11 m
  Trep      =12.88 s
  Mean dir  =109.96 degN
  Interpreting spectrum at location4
  Values calculated from interpolated spectrum:
  Hm0       =1.11 m
  Trep      =12.88 s
  Mean dir  =109.96 degN
  Interpreting spectrum at location5
  Values calculated from interpolated spectrum:
  Hm0       =1.11 m
  Trep      =12.88 s
  Mean dir  =109.96 degN
  Interpreting spectrum at location6
  Values calculated from interpolated spectrum:
  Hm0       =1.11 m
  Trep      =12.88 s
  Mean dir  =109.96 degN
  Interpreting spectrum at location7
  Values calculated from interpolated spectrum:
  Hm0       =1.11 m
  Trep      =12.88 s
  Mean dir  =109.96 degN
  Interpreting spectrum at location8
  Values calculated from interpolated spectrum:
  Hm0       =1.11 m
  Trep      =12.88 s
  Mean dir  =109.96 degN
  Interpreting spectrum at location9
  Values calculated from interpolated spectrum:
  Hm0       =1.11 m
  Trep      =12.88 s
  Mean dir  =109.96 degN
  Interpreting spectrum at location10
  Values calculated from interpolated spectrum:
  Hm0       =1.11 m
  Trep      =12.88 s
  Mean dir  =109.96 degN
  Overall Trep from all spectra calculated:12.88 s
  Calculating Fourier components
  5.0% done
  10.0% done
  15.0% done
  20.0% done
  25.0% done
  30.0% done
  35.0% done
  40.0% done
  45.0% done
  50.0% done
  55.0% done
  60.0% done
  65.0% done
  70.0% done
  75.0% done
  80.0% done
  85.0% done
  90.0% done
  95.0% done
  100.0% done
  Wave energy outside computational domain at offshore boundary:.0%
  Calculating short wave time series for theta bin1 of12
  Calculating short wave time series for theta bin2 of12
  Calculating short wave time series for theta bin3 of12
  Calculating short wave time series for theta bin4 of12
  Calculating short wave time series for theta bin5 of12
  Calculating short wave time series for theta bin6 of12
  Calculating short wave time series for theta bin7 of12
  Calculating short wave time series for theta bin8 of12
  Calculating short wave time series for theta bin9 of12
  Calculating short wave time series for theta bin10 of12
  Calculating short wave time series for theta bin11 of12
  Calculating short wave time series for theta bin12 of12
 Calculating wave energy envelope at boundary.
  5.8% done
  10.1% done
  15.9% done
  20.3% done
  26.1% done
  30.4% done
  36.2% done
  40.6% done
  46.4% done
  50.7% done
  55.1% done
  60.9% done
  65.2% done
  71.0% done
  75.4% done
  81.2% done
  85.5% done
  91.3% done
  95.7% done
  100.0% done
  Wave bin1 contains1.22% of total energy
  Wave bin2 contains3.12% of total energy
  Wave bin3 contains7.43% of total energy
  Wave bin4 contains14.01% of total energy
  Wave bin5 contains20.51% of total energy
  Wave bin6 contains28.08% of total energy
  Wave bin7 contains12.43% of total energy
  Wave bin8 contains9.21% of total energy
  Wave bin9 contains2.46% of total energy
  Wave bin10 contains1.52% of total energy
  Wave bin11 contains.00% of total energy
  Wave bin12 contains.00% of total energy
   Writing wave energy toE_series00002.bcf ...
  file done
  Calculating primary wave interaction
  5.0% done
  10.1% done
  15.1% done
  20.1% done
  25.1% done
  30.2% done
  35.2% done
  40.2% done
  45.2% done
  50.3% done
  55.3% done
  60.3% done
  65.3% done
  70.4% done
  75.4% done
  80.4% done
  85.4% done
  90.5% done
  95.5% done
  100.0% done
  Warning: shallow water so long wave variance is reduced using par%nmax
  Calculating flux at boundary
  5.8% done
  10.1% done
  15.9% done
  20.3% done
  26.1% done
  30.4% done
  36.2% done
  40.6% done
  46.4% done
  50.7% done
  55.1% done
  60.9% done
  65.2% done
  71.0% done
  75.4% done
  81.2% done
  85.5% done
  91.3% done
  95.7% done
  100.0% done
   Writing long wave mass flux toq_series00002.bcf ...
  file done
  --------------------------------
  Spectral wave boundary conditions complete
  --------------------------------
  Simulation  0.6 percent complete. Average dt  0.156 seconds
  Time remaining  8 hours and 22 minutes
  Simulation  0.6 percent complete. Average dt  0.157 seconds
  Time remaining  6 hours and 11 minutes
  Simulation  0.6 percent complete. Average dt  0.154 seconds
  Time remaining  6 hours and 19 minutes
  Simulation  0.6 percent complete. Average dt  0.158 seconds
  Time remaining  6 hours and  2 minutes
  Simulation  0.6 percent complete. Average dt  0.158 seconds
  Time remaining  6 hours and  0 minutes
  Simulation  0.7 percent complete. Average dt  0.158 seconds
  Time remaining  6 hours and  6 minutes
  Simulation  0.7 percent complete. Average dt  0.153 seconds
  Time remaining  6 hours and 13 minutes
  Simulation  0.7 percent complete. Average dt  0.154 seconds
  Time remaining  6 hours and  5 minutes
  Simulation  0.7 percent complete. Average dt  0.155 seconds
  Time remaining  6 hours and  5 minutes
  Simulation  0.8 percent complete. Average dt  0.156 seconds
  Time remaining  6 hours and 11 minutes
  Simulation  0.8 percent complete. Average dt  0.157 seconds
  Time remaining  6 hours and  3 minutes
  Simulation  0.8 percent complete. Average dt  0.155 seconds
  Time remaining  6 hours and  8 minutes
  Simulation  0.8 percent complete. Average dt  0.158 seconds
  Time remaining  6 hours and  2 minutes
  Simulation  0.9 percent complete. Average dt  0.154 seconds
  Time remaining  6 hours and 12 minutes
  Simulation  0.9 percent complete. Average dt  0.154 seconds
  Time remaining  6 hours and  2 minutes
  Simulation  0.9 percent complete. Average dt  0.154 seconds
  Time remaining  6 hours and  4 minutes
  Simulation  0.9 percent complete. Average dt  0.154 seconds
  Time remaining  6 hours and  3 minutes
  Simulation  0.9 percent complete. Average dt  0.154 seconds
  Time remaining  6 hours and  9 minutes
  Simulation  1.0 percent complete. Average dt  0.154 seconds
  Time remaining  6 hours and  7 minutes
  Simulation  1.0 percent complete. Average dt  0.154 seconds
  Time remaining  6 hours and  2 minutes
  Simulation  1.0 percent complete. Average dt  0.154 seconds
  Time remaining  6 hours and  3 minutes
  Simulation  1.0 percent complete. Average dt  0.154 seconds
  Time remaining  5 hours and 57 minutes
  Simulation  1.1 percent complete. Average dt  0.154 seconds
  Time remaining  6 hours and  9 minutes
  Simulation  1.1 percent complete. Average dt  0.154 seconds
  Time remaining  5 hours and 59 minutes
  Simulation  1.1 percent complete. Average dt  0.154 seconds
  Time remaining  6 hours and  6 minutes
  --------------------------------
  Calculating spectral wave boundary conditions
  --------------------------------
  Reading spectrum at location1
   waveparams: Reading from table:wavefile1.txt ...
 Hm0 =    1.10800000000000     
  Reading spectrum at location2
   waveparams: Reading from table:wavefile2.txt ...
 Hm0 =    1.10800000000000     
  Reading spectrum at location3
   waveparams: Reading from table:wavefile3.txt ...
 Hm0 =    1.10800000000000     
  Reading spectrum at location4
   waveparams: Reading from table:wavefile4.txt ...
 Hm0 =    1.10800000000000     
  Reading spectrum at location5
   waveparams: Reading from table:wavefile5.txt ...
 Hm0 =    1.10800000000000     
  Reading spectrum at location6
   waveparams: Reading from table:wavefile6.txt ...
 Hm0 =    1.10800000000000     
  Reading spectrum at location7
   waveparams: Reading from table:wavefile7.txt ...
 Hm0 =    1.10800000000000     
  Reading spectrum at location8
   waveparams: Reading from table:wavefile8.txt ...
 Hm0 =    1.10800000000000     
  Reading spectrum at location9
   waveparams: Reading from table:wavefile9.txt ...
 Hm0 =    1.10800000000000     
  Reading spectrum at location10
   waveparams: Reading from table:wavefile10.txt ...
 Hm0 =    1.10800000000000     
  Interpreting spectrum at location1
  Values calculated from interpolated spectrum:
  Hm0       =1.11 m
  Trep      =12.88 s
  Mean dir  =109.96 degN
  Interpreting spectrum at location2
  Values calculated from interpolated spectrum:
  Hm0       =1.11 m
  Trep      =12.88 s
  Mean dir  =109.96 degN
  Interpreting spectrum at location3
  Values calculated from interpolated spectrum:
  Hm0       =1.11 m
  Trep      =12.88 s
  Mean dir  =109.96 degN
  Interpreting spectrum at location4
  Values calculated from interpolated spectrum:
  Hm0       =1.11 m
  Trep      =12.88 s
  Mean dir  =109.96 degN
  Interpreting spectrum at location5
  Values calculated from interpolated spectrum:
  Hm0       =1.11 m
  Trep      =12.88 s
  Mean dir  =109.96 degN
  Interpreting spectrum at location6
  Values calculated from interpolated spectrum:
  Hm0       =1.11 m
  Trep      =12.88 s
  Mean dir  =109.96 degN
  Interpreting spectrum at location7
  Values calculated from interpolated spectrum:
  Hm0       =1.11 m
  Trep      =12.88 s
  Mean dir  =109.96 degN
  Interpreting spectrum at location8
  Values calculated from interpolated spectrum:
  Hm0       =1.11 m
  Trep      =12.88 s
  Mean dir  =109.96 degN
  Interpreting spectrum at location9
  Values calculated from interpolated spectrum:
  Hm0       =1.11 m
  Trep      =12.88 s
  Mean dir  =109.96 degN
  Interpreting spectrum at location10
  Values calculated from interpolated spectrum:
  Hm0       =1.11 m
  Trep      =12.88 s
  Mean dir  =109.96 degN
  Overall Trep from all spectra calculated:12.88 s
  Calculating Fourier components
  5.0% done
  10.0% done
  15.0% done
  20.0% done
  25.0% done
  30.0% done
  35.0% done
  40.0% done
  45.0% done
  50.0% done
  55.0% done
  60.0% done
  65.0% done
  70.0% done
  75.0% done
  80.0% done
  85.0% done
  90.0% done
  95.0% done
  100.0% done
  Wave energy outside computational domain at offshore boundary:.0%
  Calculating short wave time series for theta bin1 of12
  Calculating short wave time series for theta bin2 of12
  Calculating short wave time series for theta bin3 of12
  Calculating short wave time series for theta bin4 of12
  Calculating short wave time series for theta bin5 of12
  Calculating short wave time series for theta bin6 of12
  Calculating short wave time series for theta bin7 of12
  Calculating short wave time series for theta bin8 of12
  Calculating short wave time series for theta bin9 of12
  Calculating short wave time series for theta bin10 of12
  Calculating short wave time series for theta bin11 of12
  Calculating short wave time series for theta bin12 of12
 Calculating wave energy envelope at boundary.
  5.8% done
  10.1% done
  15.9% done
  20.3% done
  26.1% done
  30.4% done
  36.2% done
  40.6% done
  46.4% done
  50.7% done
  55.1% done
  60.9% done
  65.2% done
  71.0% done
  75.4% done
  81.2% done
  85.5% done
  91.3% done
  95.7% done
  100.0% done
  Wave bin1 contains1.26% of total energy
  Wave bin2 contains6.79% of total energy
  Wave bin3 contains5.44% of total energy
  Wave bin4 contains21.61% of total energy
  Wave bin5 contains21.74% of total energy
  Wave bin6 contains21.29% of total energy
  Wave bin7 contains13.20% of total energy
  Wave bin8 contains5.44% of total energy
  Wave bin9 contains3.00% of total energy
  Wave bin10 contains.24% of total energy
  Wave bin11 contains.00% of total energy
  Wave bin12 contains.00% of total energy
   Writing wave energy toE_series00003.bcf ...
  file done
  Calculating primary wave interaction
  5.0% done
  10.1% done
  15.1% done
  20.1% done
  25.1% done
  30.2% done
  35.2% done
  40.2% done
  45.2% done
  50.3% done
  55.3% done
  60.3% done
  65.3% done
  70.4% done
  75.4% done
  80.4% done
  85.4% done
  90.5% done
  95.5% done
  100.0% done
  Warning: shallow water so long wave variance is reduced using par%nmax
  Calculating flux at boundary
  5.8% done
  10.1% done
  15.9% done
  20.3% done
  26.1% done
  30.4% done
  36.2% done
  40.6% done
  46.4% done
  50.7% done
  55.1% done
  60.9% done
  65.2% done
  71.0% done
  75.4% done
  81.2% done
  85.5% done
  91.3% done
  95.7% done
  100.0% done
   Writing long wave mass flux toq_series00003.bcf ...
  file done
  --------------------------------
  Spectral wave boundary conditions complete
  --------------------------------
  Simulation  1.1 percent complete. Average dt  0.152 seconds
  Time remaining  8 hours and 37 minutes
  Simulation  1.1 percent complete. Average dt  0.152 seconds
  Time remaining  6 hours and  9 minutes
  Simulation  1.2 percent complete. Average dt  0.152 seconds
  Time remaining  5 hours and 58 minutes
  Simulation  1.2 percent complete. Average dt  0.149 seconds
  Time remaining  6 hours and  5 minutes
  Simulation  1.2 percent complete. Average dt  0.150 seconds
  Time remaining  6 hours and  4 minutes
  Simulation  1.2 percent complete. Average dt  0.150 seconds
  Time remaining  6 hours and 20 minutes
  Simulation  1.3 percent complete. Average dt  0.152 seconds
  Time remaining  6 hours and 11 minutes
  Simulation  1.3 percent complete. Average dt  0.151 seconds
  Time remaining  6 hours and  7 minutes
  Simulation  1.3 percent complete. Average dt  0.154 seconds
  Time remaining  6 hours and  6 minutes
  Simulation  1.3 percent complete. Average dt  0.149 seconds
  Time remaining  6 hours and  8 minutes
  Simulation  1.3 percent complete. Average dt  0.154 seconds
  Time remaining  6 hours and  7 minutes
  Simulation  1.4 percent complete. Average dt  0.150 seconds
  Time remaining  6 hours and 14 minutes
  Simulation  1.4 percent complete. Average dt  0.150 seconds
  Time remaining  6 hours and  9 minutes
  Simulation  1.4 percent complete. Average dt  0.150 seconds
  Time remaining  6 hours and  6 minutes
  Simulation  1.4 percent complete. Average dt  0.150 seconds
  Time remaining  6 hours and  2 minutes
  Simulation  1.5 percent complete. Average dt  0.151 seconds
  Time remaining  6 hours and  5 minutes
  Simulation  1.5 percent complete. Average dt  0.151 seconds
  Time remaining  6 hours and  3 minutes
  Simulation  1.5 percent complete. Average dt  0.150 seconds
  Time remaining  6 hours and 31 minutes
  Simulation  1.5 percent complete. Average dt  0.150 seconds
  Time remaining  6 hours and 12 minutes
  Simulation  1.5 percent complete. Average dt  0.150 seconds
  Time remaining  6 hours and  5 minutes
  Simulation  1.6 percent complete. Average dt  0.150 seconds
  Time remaining  6 hours and 10 minutes
  Simulation  1.6 percent complete. Average dt  0.150 seconds
  Time remaining  6 hours and 16 minutes
  Simulation  1.6 percent complete. Average dt  0.150 seconds
  Time remaining  6 hours and  5 minutes
  Simulation  1.6 percent complete. Average dt  0.150 seconds
  Time remaining  6 hours and 10 minutes
  Simulation  1.7 percent complete. Average dt  0.150 seconds
  Time remaining  6 hours and  6 minutes
  --------------------------------
  Calculating spectral wave boundary conditions
  --------------------------------
  Reading spectrum at location1
   waveparams: Reading from table:wavefile1.txt ...
 Hm0 =    1.10800000000000     
  Reading spectrum at location2
   waveparams: Reading from table:wavefile2.txt ...
 Hm0 =    1.10800000000000     
  Reading spectrum at location3
   waveparams: Reading from table:wavefile3.txt ...
 Hm0 =    1.10800000000000     
  Reading spectrum at location4
   waveparams: Reading from table:wavefile4.txt ...
 Hm0 =    1.10800000000000     
  Reading spectrum at location5
   waveparams: Reading from table:wavefile5.txt ...
 Hm0 =    1.10800000000000     
  Reading spectrum at location6
   waveparams: Reading from table:wavefile6.txt ...
 Hm0 =    1.10800000000000     
  Reading spectrum at location7
   waveparams: Reading from table:wavefile7.txt ...
 Hm0 =    1.10800000000000     
  Reading spectrum at location8
   waveparams: Reading from table:wavefile8.txt ...
 Hm0 =    1.10800000000000     
  Reading spectrum at location9
   waveparams: Reading from table:wavefile9.txt ...
 Hm0 =    1.10800000000000     
  Reading spectrum at location10
   waveparams: Reading from table:wavefile10.txt ...
 Hm0 =    1.10800000000000     
  Interpreting spectrum at location1
  Values calculated from interpolated spectrum:
  Hm0       =1.11 m
  Trep      =12.88 s
  Mean dir  =109.96 degN
  Interpreting spectrum at location2
  Values calculated from interpolated spectrum:
  Hm0       =1.11 m
  Trep      =12.88 s
  Mean dir  =109.96 degN
  Interpreting spectrum at location3
  Values calculated from interpolated spectrum:
  Hm0       =1.11 m
  Trep      =12.88 s
  Mean dir  =109.96 degN
  Interpreting spectrum at location4
  Values calculated from interpolated spectrum:
  Hm0       =1.11 m
  Trep      =12.88 s
  Mean dir  =109.96 degN
  Interpreting spectrum at location5
  Values calculated from interpolated spectrum:
  Hm0       =1.11 m
  Trep      =12.88 s
  Mean dir  =109.96 degN
  Interpreting spectrum at location6
  Values calculated from interpolated spectrum:
  Hm0       =1.11 m
  Trep      =12.88 s
  Mean dir  =109.96 degN
  Interpreting spectrum at location7
  Values calculated from interpolated spectrum:
  Hm0       =1.11 m
  Trep      =12.88 s
  Mean dir  =109.96 degN
  Interpreting spectrum at location8
  Values calculated from interpolated spectrum:
  Hm0       =1.11 m
  Trep      =12.88 s
  Mean dir  =109.96 degN
  Interpreting spectrum at location9
  Values calculated from interpolated spectrum:
  Hm0       =1.11 m
  Trep      =12.88 s
  Mean dir  =109.96 degN
  Interpreting spectrum at location10
  Values calculated from interpolated spectrum:
  Hm0       =1.11 m
  Trep      =12.88 s
  Mean dir  =109.96 degN
  Overall Trep from all spectra calculated:12.88 s
  Calculating Fourier components
  5.0% done
  10.0% done
  15.0% done
  20.0% done
  25.0% done
  30.0% done
  35.0% done
  40.0% done
  45.0% done
  50.0% done
  55.0% done
  60.0% done
  65.0% done
  70.0% done
  75.0% done
  80.0% done
  85.0% done
  90.0% done
  95.0% done
  100.0% done
  Wave energy outside computational domain at offshore boundary:.0%
  Calculating short wave time series for theta bin1 of12
  Calculating short wave time series for theta bin2 of12
  Calculating short wave time series for theta bin3 of12
  Calculating short wave time series for theta bin4 of12
  Calculating short wave time series for theta bin5 of12
  Calculating short wave time series for theta bin6 of12
  Calculating short wave time series for theta bin7 of12
  Calculating short wave time series for theta bin8 of12
  Calculating short wave time series for theta bin9 of12
  Calculating short wave time series for theta bin10 of12
  Calculating short wave time series for theta bin11 of12
  Calculating short wave time series for theta bin12 of12
 Calculating wave energy envelope at boundary.
  5.8% done
  10.1% done
  15.9% done
  20.3% done
  26.1% done
  30.4% done
  36.2% done
  40.6% done
  46.4% done
  50.7% done
  55.1% done
  60.9% done
  65.2% done
  71.0% done
  75.4% done
  81.2% done
  85.5% done
  91.3% done
  95.7% done
  100.0% done
  Wave bin1 contains3.02% of total energy
  Wave bin2 contains3.61% of total energy
  Wave bin3 contains13.09% of total energy
  Wave bin4 contains23.60% of total energy
  Wave bin5 contains24.25% of total energy
  Wave bin6 contains16.46% of total energy
  Wave bin7 contains13.21% of total energy
  Wave bin8 contains.92% of total energy
  Wave bin9 contains1.66% of total energy
  Wave bin10 contains.00% of total energy
  Wave bin11 contains.19% of total energy
  Wave bin12 contains.00% of total energy
   Writing wave energy toE_series00004.bcf ...
  file done
  Calculating primary wave interaction
  5.0% done
  10.1% done
  15.1% done
  20.1% done
  25.1% done
  30.2% done
  35.2% done
  40.2% done
  45.2% done
  50.3% done
  55.3% done
  60.3% done
  65.3% done
  70.4% done
  75.4% done
  80.4% done
  85.4% done
  90.5% done
  95.5% done
  100.0% done
  Warning: shallow water so long wave variance is reduced using par%nmax
  Calculating flux at boundary
  5.8% done
  10.1% done
  15.9% done
  20.3% done
  26.1% done
  30.4% done
  36.2% done
  40.6% done
  46.4% done
  50.7% done
  55.1% done
  60.9% done
  65.2% done
  71.0% done
  75.4% done
  81.2% done
  85.5% done
  91.3% done
  95.7% done
  100.0% done
   Writing long wave mass flux toq_series00004.bcf ...
  file done
  --------------------------------
  Spectral wave boundary conditions complete
  --------------------------------
  Simulation  1.7 percent complete. Average dt  0.150 seconds
  Time remaining  8 hours and 49 minutes
  Simulation  1.7 percent complete. Average dt  0.150 seconds
  Time remaining  6 hours and 10 minutes
  Simulation  1.7 percent complete. Average dt  0.150 seconds
  Time remaining  6 hours and  9 minutes
  Simulation  1.7 percent complete. Average dt  0.150 seconds
  Time remaining  6 hours and  7 minutes
  Simulation  1.8 percent complete. Average dt  0.150 seconds
  Time remaining  6 hours and  9 minutes
  Simulation  1.8 percent complete. Average dt  0.148 seconds
  Time remaining  6 hours and 16 minutes
  Simulation  1.8 percent complete. Average dt  0.146 seconds
  Time remaining  6 hours and  7 minutes
  Simulation  1.8 percent complete. Average dt  0.149 seconds
  Time remaining  6 hours and  8 minutes
  Simulation  1.8 percent complete. Average dt  0.150 seconds
  Time remaining  6 hours and  5 minutes
  Simulation  1.9 percent complete. Average dt  0.147 seconds
  Time remaining  6 hours and  7 minutes
  Simulation  1.9 percent complete. Average dt  0.146 seconds
  Time remaining  6 hours and 10 minutes
  Simulation  1.9 percent complete. Average dt  0.146 seconds
  Time remaining  6 hours and 20 minutes
  Simulation  1.9 percent complete. Average dt  0.146 seconds
  Time remaining  6 hours and  7 minutes
  Simulation  2.0 percent complete. Average dt  0.146 seconds
  Time remaining  6 hours and 15 minutes
  Simulation  2.0 percent complete. Average dt  0.146 seconds
  Time remaining  6 hours and 13 minutes
  Simulation  2.0 percent complete. Average dt  0.146 seconds
  Time remaining  6 hours and  4 minutes
  Simulation  2.0 percent complete. Average dt  0.146 seconds
  Time remaining  6 hours and 16 minutes
  Simulation  2.0 percent complete. Average dt  0.146 seconds
  Time remaining  6 hours and  8 minutes
  Simulation  2.1 percent complete. Average dt  0.146 seconds
  Time remaining  6 hours and  7 minutes
  Simulation  2.1 percent complete. Average dt  0.146 seconds
  Time remaining  6 hours and 38 minutes
  Simulation  2.1 percent complete. Average dt  0.145 seconds
  Time remaining  6 hours and 26 minutes
  Simulation  2.1 percent complete. Average dt  0.142 seconds
  Time remaining  6 hours and 17 minutes
  Simulation  2.2 percent complete. Average dt  0.146 seconds
  Time remaining  6 hours and  7 minutes
  Simulation  2.2 percent complete. Average dt  0.143 seconds
  Time remaining  6 hours and 14 minutes
  Simulation  2.2 percent complete. Average dt  0.143 seconds
  Time remaining  6 hours and 11 minutes
  Simulation  2.2 percent complete. Average dt  0.146 seconds
  Time remaining  6 hours and 11 minutes
  --------------------------------
  Calculating spectral wave boundary conditions
  --------------------------------
  Reading spectrum at location1
   waveparams: Reading from table:wavefile1.txt ...
 Hm0 =    1.10800000000000     
  Reading spectrum at location2
   waveparams: Reading from table:wavefile2.txt ...
 Hm0 =    1.10800000000000     
  Reading spectrum at location3
   waveparams: Reading from table:wavefile3.txt ...
 Hm0 =    1.10800000000000     
  Reading spectrum at location4
   waveparams: Reading from table:wavefile4.txt ...
 Hm0 =    1.10800000000000     
  Reading spectrum at location5
   waveparams: Reading from table:wavefile5.txt ...
 Hm0 =    1.10800000000000     
  Reading spectrum at location6
   waveparams: Reading from table:wavefile6.txt ...
 Hm0 =    1.10800000000000     
  Reading spectrum at location7
   waveparams: Reading from table:wavefile7.txt ...
 Hm0 =    1.10800000000000     
  Reading spectrum at location8
   waveparams: Reading from table:wavefile8.txt ...
 Hm0 =    1.10800000000000     
  Reading spectrum at location9
   waveparams: Reading from table:wavefile9.txt ...
 Hm0 =    1.10800000000000     
  Reading spectrum at location10
   waveparams: Reading from table:wavefile10.txt ...
 Hm0 =    1.10800000000000     
  Interpreting spectrum at location1
  Values calculated from interpolated spectrum:
  Hm0       =1.11 m
  Trep      =12.88 s
  Mean dir  =109.96 degN
  Interpreting spectrum at location2
  Values calculated from interpolated spectrum:
  Hm0       =1.11 m
  Trep      =12.88 s
  Mean dir  =109.96 degN
  Interpreting spectrum at location3
  Values calculated from interpolated spectrum:
  Hm0       =1.11 m
  Trep      =12.88 s
  Mean dir  =109.96 degN
  Interpreting spectrum at location4
  Values calculated from interpolated spectrum:
  Hm0       =1.11 m
  Trep      =12.88 s
  Mean dir  =109.96 degN
  Interpreting spectrum at location5
  Values calculated from interpolated spectrum:
  Hm0       =1.11 m
  Trep      =12.88 s
  Mean dir  =109.96 degN
  Interpreting spectrum at location6
  Values calculated from interpolated spectrum:
  Hm0       =1.11 m
  Trep      =12.88 s
  Mean dir  =109.96 degN
  Interpreting spectrum at location7
  Values calculated from interpolated spectrum:
  Hm0       =1.11 m
  Trep      =12.88 s
  Mean dir  =109.96 degN
  Interpreting spectrum at location8
  Values calculated from interpolated spectrum:
  Hm0       =1.11 m
  Trep      =12.88 s
  Mean dir  =109.96 degN
  Interpreting spectrum at location9
  Values calculated from interpolated spectrum:
  Hm0       =1.11 m
  Trep      =12.88 s
  Mean dir  =109.96 degN
  Interpreting spectrum at location10
  Values calculated from interpolated spectrum:
  Hm0       =1.11 m
  Trep      =12.88 s
  Mean dir  =109.96 degN
  Overall Trep from all spectra calculated:12.88 s
  Calculating Fourier components
  5.0% done
  10.0% done
  15.0% done
  20.0% done
  25.0% done
  30.0% done
  35.0% done
  40.0% done
  45.0% done
  50.0% done
  55.0% done
  60.0% done
  65.0% done
  70.0% done
  75.0% done
  80.0% done
  85.0% done
  90.0% done
  95.0% done
  100.0% done
  Wave energy outside computational domain at offshore boundary:.0%
  Calculating short wave time series for theta bin1 of12
  Calculating short wave time series for theta bin2 of12
  Calculating short wave time series for theta bin3 of12
  Calculating short wave time series for theta bin4 of12
  Calculating short wave time series for theta bin5 of12
  Calculating short wave time series for theta bin6 of12
  Calculating short wave time series for theta bin7 of12
  Calculating short wave time series for theta bin8 of12
  Calculating short wave time series for theta bin9 of12
  Calculating short wave time series for theta bin10 of12
  Calculating short wave time series for theta bin11 of12
  Calculating short wave time series for theta bin12 of12
 Calculating wave energy envelope at boundary.
  5.8% done
  10.1% done
  15.9% done
  20.3% done
  26.1% done
  30.4% done
  36.2% done
  40.6% done
  46.4% done
  50.7% done
  55.1% done
  60.9% done
  65.2% done
  71.0% done
  75.4% done
  81.2% done
  85.5% done
  91.3% done
  95.7% done
  100.0% done
  Wave bin1 contains.60% of total energy
  Wave bin2 contains4.08% of total energy
  Wave bin3 contains8.20% of total energy
  Wave bin4 contains18.63% of total energy
  Wave bin5 contains26.21% of total energy
  Wave bin6 contains21.01% of total energy
  Wave bin7 contains12.31% of total energy
  Wave bin8 contains7.23% of total energy
  Wave bin9 contains1.73% of total energy
  Wave bin10 contains.00% of total energy
  Wave bin11 contains.00% of total energy
  Wave bin12 contains.00% of total energy
   Writing wave energy toE_series00005.bcf ...
  file done
  Calculating primary wave interaction
  5.0% done
  10.1% done
  15.1% done
  20.1% done
  25.1% done
  30.2% done
  35.2% done
  40.2% done
  45.2% done
  50.3% done
  55.3% done
  60.3% done
  65.3% done
  70.4% done
  75.4% done
  80.4% done
  85.4% done
  90.5% done
  95.5% done
  100.0% done
  Warning: shallow water so long wave variance is reduced using par%nmax
  Calculating flux at boundary
  5.8% done
  10.1% done
  15.9% done
  20.3% done
  26.1% done
  30.4% done
  36.2% done
  40.6% done
  46.4% done
  50.7% done
  55.1% done
  60.9% done
  65.2% done
  71.0% done
  75.4% done
  81.2% done
  85.5% done
  91.3% done
  95.7% done
  100.0% done
   Writing long wave mass flux toq_series00005.bcf ...
  file done
  --------------------------------
  Spectral wave boundary conditions complete
  --------------------------------
  Simulation  2.2 percent complete. Average dt  0.146 seconds
  Time remaining  8 hours and 47 minutes
  Simulation  2.3 percent complete. Average dt  0.146 seconds
  Time remaining  6 hours and  9 minutes
  Simulation  2.3 percent complete. Average dt  0.146 seconds
  Time remaining  6 hours and 18 minutes
  Simulation  2.3 percent complete. Average dt  0.146 seconds
  Time remaining  6 hours and 12 minutes
  Simulation  2.3 percent complete. Average dt  0.146 seconds
  Time remaining  6 hours and 18 minutes
  Simulation  2.3 percent complete. Average dt  0.143 seconds
  Time remaining  6 hours and 20 minutes
  Simulation  2.4 percent complete. Average dt  0.142 seconds
  Time remaining  6 hours and 17 minutes
  Simulation  2.4 percent complete. Average dt  0.136 seconds
  Time remaining  6 hours and 24 minutes
  Simulation  2.4 percent complete. Average dt  0.143 seconds
  Time remaining  6 hours and 16 minutes
  Simulation  2.4 percent complete. Average dt  0.143 seconds
  Time remaining  6 hours and 16 minutes
  Simulation  2.4 percent complete. Average dt  0.143 seconds
  Time remaining  6 hours and 26 minutes
  Simulation  2.5 percent complete. Average dt  0.144 seconds
  Time remaining  6 hours and 19 minutes
  Simulation  2.5 percent complete. Average dt  0.146 seconds
  Time remaining  6 hours and  7 minutes
  Simulation  2.5 percent complete. Average dt  0.143 seconds
  Time remaining  6 hours and 22 minutes
  Simulation  2.5 percent complete. Average dt  0.142 seconds
  Time remaining  6 hours and 13 minutes
  Simulation  2.5 percent complete. Average dt  0.143 seconds
  Time remaining  6 hours and 11 minutes
  Simulation  2.6 percent complete. Average dt  0.141 seconds
  Time remaining  6 hours and 27 minutes
  Simulation  2.6 percent complete. Average dt  0.142 seconds
  Time remaining  6 hours and 19 minutes
  Simulation  2.6 percent complete. Average dt  0.141 seconds
  Time remaining  6 hours and 24 minutes
  Simulation  2.6 percent complete. Average dt  0.143 seconds
  Time remaining  6 hours and 24 minutes
  Simulation  2.7 percent complete. Average dt  0.143 seconds
  Time remaining  6 hours and 15 minutes
  Simulation  2.7 percent complete. Average dt  0.143 seconds
  Time remaining  6 hours and 18 minutes
  Simulation  2.7 percent complete. Average dt  0.140 seconds
  Time remaining  6 hours and 17 minutes
  Simulation  2.7 percent complete. Average dt  0.143 seconds
  Time remaining  6 hours and 11 minutes
  Simulation  2.7 percent complete. Average dt  0.141 seconds
  Time remaining  6 hours and 16 minutes
  Simulation  2.8 percent complete. Average dt  0.136 seconds
  Time remaining  6 hours and 24 minutes
  --------------------------------
  Calculating spectral wave boundary conditions
  --------------------------------
  Reading spectrum at location1
   waveparams: Reading from table:wavefile1.txt ...
 Hm0 =    1.10800000000000     
  Reading spectrum at location2
   waveparams: Reading from table:wavefile2.txt ...
 Hm0 =    1.10800000000000     
  Reading spectrum at location3
   waveparams: Reading from table:wavefile3.txt ...
 Hm0 =    1.10800000000000     
  Reading spectrum at location4
   waveparams: Reading from table:wavefile4.txt ...
 Hm0 =    1.10800000000000     
  Reading spectrum at location5
   waveparams: Reading from table:wavefile5.txt ...
 Hm0 =    1.10800000000000     
  Reading spectrum at location6
   waveparams: Reading from table:wavefile6.txt ...
 Hm0 =    1.10800000000000     
  Reading spectrum at location7
   waveparams: Reading from table:wavefile7.txt ...
 Hm0 =    1.10800000000000     
  Reading spectrum at location8
   waveparams: Reading from table:wavefile8.txt ...
 Hm0 =    1.10800000000000     
  Reading spectrum at location9
   waveparams: Reading from table:wavefile9.txt ...
 Hm0 =    1.10800000000000     
  Reading spectrum at location10
   waveparams: Reading from table:wavefile10.txt ...
 Hm0 =    1.10800000000000     
  Interpreting spectrum at location1
  Values calculated from interpolated spectrum:
  Hm0       =1.11 m
  Trep      =12.88 s
  Mean dir  =109.96 degN
  Interpreting spectrum at location2
  Values calculated from interpolated spectrum:
  Hm0       =1.11 m
  Trep      =12.88 s
  Mean dir  =109.96 degN
  Interpreting spectrum at location3
  Values calculated from interpolated spectrum:
  Hm0       =1.11 m
  Trep      =12.88 s
  Mean dir  =109.96 degN
  Interpreting spectrum at location4
  Values calculated from interpolated spectrum:
  Hm0       =1.11 m
  Trep      =12.88 s
  Mean dir  =109.96 degN
  Interpreting spectrum at location5
  Values calculated from interpolated spectrum:
  Hm0       =1.11 m
  Trep      =12.88 s
  Mean dir  =109.96 degN
  Interpreting spectrum at location6
  Values calculated from interpolated spectrum:
  Hm0       =1.11 m
  Trep      =12.88 s
  Mean dir  =109.96 degN
  Interpreting spectrum at location7
  Values calculated from interpolated spectrum:
  Hm0       =1.11 m
  Trep      =12.88 s
  Mean dir  =109.96 degN
  Interpreting spectrum at location8
  Values calculated from interpolated spectrum:
  Hm0       =1.11 m
  Trep      =12.88 s
  Mean dir  =109.96 degN
  Interpreting spectrum at location9
  Values calculated from interpolated spectrum:
  Hm0       =1.11 m
  Trep      =12.88 s
  Mean dir  =109.96 degN
  Interpreting spectrum at location10
  Values calculated from interpolated spectrum:
  Hm0       =1.11 m
  Trep      =12.88 s
  Mean dir  =109.96 degN
  Overall Trep from all spectra calculated:12.88 s
  Calculating Fourier components
  5.0% done
  10.0% done
  15.0% done
  20.0% done
  25.0% done
  30.0% done
  35.0% done
  40.0% done
  45.0% done
  50.0% done
  55.0% done
  60.0% done
  65.0% done
  70.0% done
  75.0% done
  80.0% done
  85.0% done
  90.0% done
  95.0% done
  100.0% done
  Wave energy outside computational domain at offshore boundary:.0%
  Calculating short wave time series for theta bin1 of12
  Calculating short wave time series for theta bin2 of12
  Calculating short wave time series for theta bin3 of12
  Calculating short wave time series for theta bin4 of12
  Calculating short wave time series for theta bin5 of12
  Calculating short wave time series for theta bin6 of12
  Calculating short wave time series for theta bin7 of12
  Calculating short wave time series for theta bin8 of12
  Calculating short wave time series for theta bin9 of12
  Calculating short wave time series for theta bin10 of12
  Calculating short wave time series for theta bin11 of12
  Calculating short wave time series for theta bin12 of12
 Calculating wave energy envelope at boundary.
  5.8% done
  10.1% done
  15.9% done
  20.3% done
  26.1% done
  30.4% done
  36.2% done
  40.6% done
  46.4% done
  50.7% done
  55.1% done
  60.9% done
  65.2% done
  71.0% done
  75.4% done
  81.2% done
  85.5% done
  91.3% done
  95.7% done
  100.0% done
  Wave bin1 contains1.07% of total energy
  Wave bin2 contains2.24% of total energy
  Wave bin3 contains11.71% of total energy
  Wave bin4 contains20.45% of total energy
  Wave bin5 contains19.21% of total energy
  Wave bin6 contains19.35% of total energy
  Wave bin7 contains14.17% of total energy
  Wave bin8 contains8.16% of total energy
  Wave bin9 contains2.68% of total energy
  Wave bin10 contains.95% of total energy
  Wave bin11 contains.00% of total energy
  Wave bin12 contains.00% of total energy
   Writing wave energy toE_series00006.bcf ...
  file done
  Calculating primary wave interaction
  5.0% done
  10.1% done
  15.1% done
  20.1% done
  25.1% done
  30.2% done
  35.2% done
  40.2% done
  45.2% done
  50.3% done
  55.3% done
  60.3% done
  65.3% done
  70.4% done
  75.4% done
  80.4% done
  85.4% done
  90.5% done
  95.5% done
  100.0% done
  Warning: shallow water so long wave variance is reduced using par%nmax
  Calculating flux at boundary
  5.8% done
  10.1% done
  15.9% done
  20.3% done
  26.1% done
  30.4% done
  36.2% done
  40.6% done
  46.4% done
  50.7% done
  55.1% done
  60.9% done
  65.2% done
  71.0% done
  75.4% done
  81.2% done
  85.5% done
  91.3% done
  95.7% done
  100.0% done
   Writing long wave mass flux toq_series00006.bcf ...
  file done
  --------------------------------
  Spectral wave boundary conditions complete
  --------------------------------
  Simulation  2.8 percent complete. Average dt  0.143 seconds
  Time remaining  7 hours and 47 minutes
  Simulation  2.8 percent complete. Average dt  0.140 seconds
  Time remaining  6 hours and 17 minutes
  Simulation  2.8 percent complete. Average dt  0.140 seconds
  Time remaining  6 hours and 16 minutes
  Simulation  2.8 percent complete. Average dt  0.139 seconds
  Time remaining  6 hours and 26 minutes
  Simulation  2.9 percent complete. Average dt  0.139 seconds
  Time remaining  6 hours and 29 minutes
  Simulation  2.9 percent complete. Average dt  0.140 seconds
  Time remaining  6 hours and 29 minutes
  Simulation  2.9 percent complete. Average dt  0.143 seconds
  Time remaining  6 hours and 22 minutes
  Simulation  2.9 percent complete. Average dt  0.141 seconds
  Time remaining  6 hours and 23 minutes
  Simulation  2.9 percent complete. Average dt  0.139 seconds
  Time remaining  6 hours and 17 minutes
  Simulation  3.0 percent complete. Average dt  0.138 seconds
  Time remaining  6 hours and 17 minutes
  Simulation  3.0 percent complete. Average dt  0.139 seconds
  Time remaining  6 hours and 17 minutes
  Simulation  3.0 percent complete. Average dt  0.140 seconds
  Time remaining  6 hours and 17 minutes
  Simulation  3.0 percent complete. Average dt  0.138 seconds
  Time remaining  6 hours and 19 minutes
  Simulation  3.0 percent complete. Average dt  0.138 seconds
  Time remaining  6 hours and 29 minutes
  Simulation  3.1 percent complete. Average dt  0.140 seconds
  Time remaining  6 hours and 17 minutes
  Simulation  3.1 percent complete. Average dt  0.138 seconds
  Time remaining  6 hours and 22 minutes
  Simulation  3.1 percent complete. Average dt  0.139 seconds
  Time remaining  6 hours and 21 minutes
  Simulation  3.1 percent complete. Average dt  0.142 seconds
  Time remaining  6 hours and 13 minutes
  Simulation  3.2 percent complete. Average dt  0.139 seconds
  Time remaining  6 hours and 21 minutes
  Simulation  3.2 percent complete. Average dt  0.140 seconds
  Time remaining  6 hours and 17 minutes
  Simulation  3.2 percent complete. Average dt  0.137 seconds
  Time remaining  6 hours and 27 minutes
  Simulation  3.2 percent complete. Average dt  0.140 seconds
  Time remaining  6 hours and 26 minutes
  Simulation  3.2 percent complete. Average dt  0.137 seconds
  Time remaining  6 hours and 17 minutes
  Simulation  3.3 percent complete. Average dt  0.140 seconds
  Time remaining  6 hours and 14 minutes
  Simulation  3.3 percent complete. Average dt  0.138 seconds
  Time remaining  6 hours and 18 minutes
  Simulation  3.3 percent complete. Average dt  0.139 seconds
  Time remaining  6 hours and 25 minutes
  Simulation  3.3 percent complete. Average dt  0.137 seconds
  Time remaining  6 hours and 27 minutes
  --------------------------------
  Calculating spectral wave boundary conditions
  --------------------------------
  Reading spectrum at location1
   waveparams: Reading from table:wavefile1.txt ...
 Hm0 =    1.10800000000000     
  Reading spectrum at location2
   waveparams: Reading from table:wavefile2.txt ...
 Hm0 =    1.10800000000000     
  Reading spectrum at location3
   waveparams: Reading from table:wavefile3.txt ...
 Hm0 =    1.10800000000000     
  Reading spectrum at location4
   waveparams: Reading from table:wavefile4.txt ...
 Hm0 =    1.10800000000000     
  Reading spectrum at location5
   waveparams: Reading from table:wavefile5.txt ...
 Hm0 =    1.10800000000000     
  Reading spectrum at location6
   waveparams: Reading from table:wavefile6.txt ...
 Hm0 =    1.10800000000000     
  Reading spectrum at location7
   waveparams: Reading from table:wavefile7.txt ...
 Hm0 =    1.10800000000000     
  Reading spectrum at location8
   waveparams: Reading from table:wavefile8.txt ...
 Hm0 =    1.10800000000000     
  Reading spectrum at location9
   waveparams: Reading from table:wavefile9.txt ...
 Hm0 =    1.10800000000000     
  Reading spectrum at location10
   waveparams: Reading from table:wavefile10.txt ...
 Hm0 =    1.10800000000000     
  Interpreting spectrum at location1
  Values calculated from interpolated spectrum:
  Hm0       =1.11 m
  Trep      =12.88 s
  Mean dir  =109.96 degN
  Interpreting spectrum at location2
  Values calculated from interpolated spectrum:
  Hm0       =1.11 m
  Trep      =12.88 s
  Mean dir  =109.96 degN
  Interpreting spectrum at location3
  Values calculated from interpolated spectrum:
  Hm0       =1.11 m
  Trep      =12.88 s
  Mean dir  =109.96 degN
  Interpreting spectrum at location4
  Values calculated from interpolated spectrum:
  Hm0       =1.11 m
  Trep      =12.88 s
  Mean dir  =109.96 degN
  Interpreting spectrum at location5
  Values calculated from interpolated spectrum:
  Hm0       =1.11 m
  Trep      =12.88 s
  Mean dir  =109.96 degN
  Interpreting spectrum at location6
  Values calculated from interpolated spectrum:
  Hm0       =1.11 m
  Trep      =12.88 s
  Mean dir  =109.96 degN
  Interpreting spectrum at location7
  Values calculated from interpolated spectrum:
  Hm0       =1.11 m
  Trep      =12.88 s
  Mean dir  =109.96 degN
  Interpreting spectrum at location8
  Values calculated from interpolated spectrum:
  Hm0       =1.11 m
  Trep      =12.88 s
  Mean dir  =109.96 degN
  Interpreting spectrum at location9
  Values calculated from interpolated spectrum:
  Hm0       =1.11 m
  Trep      =12.88 s
  Mean dir  =109.96 degN
  Interpreting spectrum at location10
  Values calculated from interpolated spectrum:
  Hm0       =1.11 m
  Trep      =12.88 s
  Mean dir  =109.96 degN
  Overall Trep from all spectra calculated:12.88 s
  Calculating Fourier components
  5.0% done
  10.0% done
  15.0% done
  20.0% done
  25.0% done
  30.0% done
  35.0% done
  40.0% done
  45.0% done
  50.0% done
  55.0% done
  60.0% done
  65.0% done
  70.0% done
  75.0% done
  80.0% done
  85.0% done
  90.0% done
  95.0% done
  100.0% done
  Wave energy outside computational domain at offshore boundary:.0%
  Calculating short wave time series for theta bin1 of12
  Calculating short wave time series for theta bin2 of12
  Calculating short wave time series for theta bin3 of12
  Calculating short wave time series for theta bin4 of12
  Calculating short wave time series for theta bin5 of12
  Calculating short wave time series for theta bin6 of12
  Calculating short wave time series for theta bin7 of12
  Calculating short wave time series for theta bin8 of12
  Calculating short wave time series for theta bin9 of12
  Calculating short wave time series for theta bin10 of12
  Calculating short wave time series for theta bin11 of12
  Calculating short wave time series for theta bin12 of12
 Calculating wave energy envelope at boundary.
  5.8% done
  10.1% done
  15.9% done
  20.3% done
  26.1% done
  30.4% done
  36.2% done
  40.6% done
  46.4% done
  50.7% done
  55.1% done
  60.9% done
  65.2% done
  71.0% done
  75.4% done
  81.2% done
  85.5% done
  91.3% done
  95.7% done
  100.0% done
  Wave bin1 contains.90% of total energy
  Wave bin2 contains4.07% of total energy
  Wave bin3 contains7.29% of total energy
  Wave bin4 contains17.83% of total energy
  Wave bin5 contains21.18% of total energy
  Wave bin6 contains24.99% of total energy
  Wave bin7 contains12.15% of total energy
  Wave bin8 contains10.18% of total energy
  Wave bin9 contains1.43% of total energy
  Wave bin10 contains.00% of total energy
  Wave bin11 contains.00% of total energy
  Wave bin12 contains.00% of total energy
   Writing wave energy toE_series00007.bcf ...
  file done
  Calculating primary wave interaction
  5.0% done
  10.1% done
  15.1% done
  20.1% done
  25.1% done
  30.2% done
  35.2% done
  40.2% done
  45.2% done
  50.3% done
  55.3% done
  60.3% done
  65.3% done
  70.4% done
  75.4% done
  80.4% done
  85.4% done
  90.5% done
  95.5% done
  100.0% done
  Warning: shallow water so long wave variance is reduced using par%nmax
  Calculating flux at boundary
  5.8% done
  10.1% done
  15.9% done
  20.3% done
  26.1% done
  30.4% done
  36.2% done
  40.6% done
  46.4% done
  50.7% done
  55.1% done
  60.9% done
  65.2% done
  71.0% done
  75.4% done
  81.2% done
  85.5% done
  91.3% done
  95.7% done
  100.0% done
   Writing long wave mass flux toq_series00007.bcf ...
  file done
  --------------------------------
  Spectral wave boundary conditions complete
  --------------------------------
  Simulation  3.3 percent complete. Average dt  0.140 seconds
  Time remaining  8 hours and 36 minutes
  Simulation  3.4 percent complete. Average dt  0.140 seconds
  Time remaining  6 hours and 17 minutes
  Simulation  3.4 percent complete. Average dt  0.140 seconds
  Time remaining  6 hours and 16 minutes
  Simulation  3.4 percent complete. Average dt  0.137 seconds
  Time remaining  6 hours and 28 minutes
  Simulation  3.4 percent complete. Average dt  0.139 seconds
  Time remaining  6 hours and 17 minutes
  Simulation  3.4 percent complete. Average dt  0.137 seconds
  Time remaining  6 hours and 24 minutes
[...]
  Simulation 98.9 percent complete. Average dt  0.151 seconds
  Time remaining  3 minutes and 59 seconds
  Simulation 99.0 percent complete. Average dt  0.152 seconds
  Time remaining  3 minutes and 49 seconds
  Simulation 99.0 percent complete. Average dt  0.149 seconds
  Time remaining  3 minutes and 47 seconds
  Simulation 99.0 percent complete. Average dt  0.150 seconds
  Time remaining  3 minutes and 46 seconds
  Simulation 99.0 percent complete. Average dt  0.150 seconds
  Time remaining  3 minutes and 44 seconds
  Simulation 99.1 percent complete. Average dt  0.150 seconds
  Time remaining  3 minutes and 30 seconds
  Simulation 99.1 percent complete. Average dt  0.150 seconds
  Time remaining  3 minutes and 28 seconds
  Simulation 99.1 percent complete. Average dt  0.150 seconds
  Time remaining  3 minutes and 25 seconds
  Simulation 99.1 percent complete. Average dt  0.150 seconds
  Time remaining  3 minutes and 25 seconds
  Simulation 99.1 percent complete. Average dt  0.150 seconds
  Time remaining  3 minutes and 19 seconds
  Simulation 99.2 percent complete. Average dt  0.150 seconds
  Time remaining  3 minutes and 11 seconds
  Simulation 99.2 percent complete. Average dt  0.150 seconds
  Time remaining  3 minutes and  7 seconds
  Simulation 99.2 percent complete. Average dt  0.150 seconds
  Time remaining  2 minutes and 59 seconds
  Simulation 99.2 percent complete. Average dt  0.150 seconds
  Time remaining  2 minutes and 53 seconds
  Simulation 99.3 percent complete. Average dt  0.149 seconds
  Time remaining  2 minutes and 47 seconds
  Simulation 99.3 percent complete. Average dt  0.146 seconds
  Time remaining  2 minutes and 47 seconds
  Simulation 99.3 percent complete. Average dt  0.150 seconds
  Time remaining  2 minutes and 37 seconds
  Simulation 99.3 percent complete. Average dt  0.148 seconds
  Time remaining  2 minutes and 32 seconds
  Simulation 99.3 percent complete. Average dt  0.149 seconds
  Time remaining  2 minutes and 28 seconds
  Simulation 99.4 percent complete. Average dt  0.146 seconds
  Time remaining  2 minutes and 27 seconds
  Simulation 99.4 percent complete. Average dt  0.150 seconds
  Time remaining  2 minutes and 18 seconds
  Simulation 99.4 percent complete. Average dt  0.146 seconds
  Time remaining  2 minutes and 14 seconds
  Simulation 99.4 percent complete. Average dt  0.147 seconds
  Time remaining  2 minutes and  8 seconds
  --------------------------------
  Calculating spectral wave boundary conditions
  --------------------------------
  Reading spectrum at location1
   waveparams: Reading from table:wavefile1.txt ...
 Hm0 =   0.711999999999999     
  Reading spectrum at location2
   waveparams: Reading from table:wavefile2.txt ...
 Hm0 =   0.711999999999999     
  Reading spectrum at location3
   waveparams: Reading from table:wavefile3.txt ...
 Hm0 =   0.711999999999999     
  Reading spectrum at location4
   waveparams: Reading from table:wavefile4.txt ...
 Hm0 =   0.711999999999999     
  Reading spectrum at location5
   waveparams: Reading from table:wavefile5.txt ...
 Hm0 =   0.711999999999999     
  Reading spectrum at location6
   waveparams: Reading from table:wavefile6.txt ...
 Hm0 =   0.711999999999999     
  Reading spectrum at location7
   waveparams: Reading from table:wavefile7.txt ...
 Hm0 =   0.711999999999999     
  Reading spectrum at location8
   waveparams: Reading from table:wavefile8.txt ...
 Hm0 =   0.711999999999999     
  Reading spectrum at location9
   waveparams: Reading from table:wavefile9.txt ...
 Hm0 =   0.711999999999999     
  Reading spectrum at location10
   waveparams: Reading from table:wavefile10.txt ...
 Hm0 =   0.711999999999999     
  Interpreting spectrum at location1
  Values calculated from interpolated spectrum:
  Hm0       =.71 m
  Trep      =13.86 s
  Mean dir  =90.03 degN
  Interpreting spectrum at location2
  Values calculated from interpolated spectrum:
  Hm0       =.71 m
  Trep      =13.86 s
  Mean dir  =90.03 degN
  Interpreting spectrum at location3
  Values calculated from interpolated spectrum:
  Hm0       =.71 m
  Trep      =13.86 s
  Mean dir  =90.03 degN
  Interpreting spectrum at location4
  Values calculated from interpolated spectrum:
  Hm0       =.71 m
  Trep      =13.86 s
  Mean dir  =90.03 degN
  Interpreting spectrum at location5
  Values calculated from interpolated spectrum:
  Hm0       =.71 m
  Trep      =13.86 s
  Mean dir  =90.03 degN
  Interpreting spectrum at location6
  Values calculated from interpolated spectrum:
  Hm0       =.71 m
  Trep      =13.86 s
  Mean dir  =90.03 degN
  Interpreting spectrum at location7
  Values calculated from interpolated spectrum:
  Hm0       =.71 m
  Trep      =13.86 s
  Mean dir  =90.03 degN
  Interpreting spectrum at location8
  Values calculated from interpolated spectrum:
  Hm0       =.71 m
  Trep      =13.86 s
  Mean dir  =90.03 degN
  Interpreting spectrum at location9
  Values calculated from interpolated spectrum:
  Hm0       =.71 m
  Trep      =13.86 s
  Mean dir  =90.03 degN
  Interpreting spectrum at location10
  Values calculated from interpolated spectrum:
  Hm0       =.71 m
  Trep      =13.86 s
  Mean dir  =90.03 degN
  Overall Trep from all spectra calculated:13.86 s
  Calculating Fourier components
  5.0% done
  10.0% done
  15.0% done
  20.0% done
  25.0% done
  30.0% done
  35.0% done
  40.0% done
  45.0% done
  50.0% done
  55.0% done
  60.0% done
  65.0% done
  70.0% done
  75.0% done
  80.0% done
  85.0% done
  90.0% done
  95.0% done
  100.0% done
  Wave energy outside computational domain at offshore boundary:.0%
  Calculating short wave time series for theta bin1 of12
  Calculating short wave time series for theta bin2 of12
  Calculating short wave time series for theta bin3 of12
  Calculating short wave time series for theta bin4 of12
  Calculating short wave time series for theta bin5 of12
  Calculating short wave time series for theta bin6 of12
  Calculating short wave time series for theta bin7 of12
  Calculating short wave time series for theta bin8 of12
  Calculating short wave time series for theta bin9 of12
  Calculating short wave time series for theta bin10 of12
  Calculating short wave time series for theta bin11 of12
  Calculating short wave time series for theta bin12 of12
 Calculating wave energy envelope at boundary.
  5.8% done
  10.1% done
  15.9% done
  20.3% done
  26.1% done
  30.4% done
  36.2% done
  40.6% done
  46.4% done
  50.7% done
  55.1% done
  60.9% done
  65.2% done
  71.0% done
  75.4% done
  81.2% done
  85.5% done
  91.3% done
  95.7% done
  100.0% done
  Wave bin1 contains.00% of total energy
  Wave bin2 contains.14% of total energy
  Wave bin3 contains1.80% of total energy
  Wave bin4 contains10.84% of total energy
  Wave bin5 contains17.31% of total energy
  Wave bin6 contains24.48% of total energy
  Wave bin7 contains22.03% of total energy
  Wave bin8 contains16.92% of total energy
  Wave bin9 contains5.09% of total energy
  Wave bin10 contains1.10% of total energy
  Wave bin11 contains.30% of total energy
  Wave bin12 contains.00% of total energy
   Writing wave energy toE_series00180.bcf ...
  file done
  Calculating primary wave interaction
  5.0% done
  10.1% done
  15.1% done
  20.1% done
  25.1% done
  30.2% done
  35.2% done
  40.2% done
  45.2% done
  50.3% done
  55.3% done
  60.3% done
  65.3% done
  70.4% done
  75.4% done
  80.4% done
  85.4% done
  90.5% done
  95.5% done
  100.0% done
  Warning: shallow water so long wave variance is reduced using par%nmax
  Calculating flux at boundary
  5.8% done
  10.1% done
  15.9% done
  20.3% done
  26.1% done
  30.4% done
  36.2% done
  40.6% done
  46.4% done
  50.7% done
  55.1% done
  60.9% done
  65.2% done
  71.0% done
  75.4% done
  81.2% done
  85.5% done
  91.3% done
  95.7% done
  100.0% done
   Writing long wave mass flux toq_series00180.bcf ...
  file done
  --------------------------------
  Spectral wave boundary conditions complete
  --------------------------------
  Simulation 99.4 percent complete. Average dt  0.146 seconds
  Time remaining  2 minutes and 55 seconds
  Simulation 99.5 percent complete. Average dt  0.146 seconds
  Time remaining  2 minutes and  2 seconds
  Simulation 99.5 percent complete. Average dt  0.146 seconds
  Time remaining  1 minutes and 56 seconds
  Simulation 99.5 percent complete. Average dt  0.146 seconds
  Time remaining  1 minutes and 51 seconds
  Simulation 99.5 percent complete. Average dt  0.143 seconds
  Time remaining  1 minutes and 47 seconds
  Simulation 99.6 percent complete. Average dt  0.146 seconds
  Time remaining  1 minutes and 41 seconds
  Simulation 99.6 percent complete. Average dt  0.146 seconds
  Time remaining  1 minutes and 35 seconds
  Simulation 99.6 percent complete. Average dt  0.146 seconds
  Time remaining  1 minutes and 30 seconds
  Simulation 99.6 percent complete. Average dt  0.146 seconds
  Time remaining  1 minutes and 27 seconds
  Simulation 99.6 percent complete. Average dt  0.146 seconds
  Time remaining  1 minutes and 25 seconds
  Simulation 99.7 percent complete. Average dt  0.146 seconds
  Time remaining  1 minutes and 20 seconds
  Simulation 99.7 percent complete. Average dt  0.146 seconds
  Time remaining  1 minutes and 12 seconds
  Simulation 99.7 percent complete. Average dt  0.143 seconds
  Time remaining  1 minutes and  7 seconds
  Simulation 99.7 percent complete. Average dt  0.144 seconds
  Time remaining  1 minutes and  5 seconds
  Simulation 99.8 percent complete. Average dt  0.146 seconds
  Time remaining 59 seconds
  Simulation 99.8 percent complete. Average dt  0.143 seconds
  Time remaining 54 seconds
  Simulation 99.8 percent complete. Average dt  0.146 seconds
  Time remaining 48 seconds
  Simulation 99.8 percent complete. Average dt  0.145 seconds
  Time remaining 43 seconds
  Simulation 99.8 percent complete. Average dt  0.143 seconds
  Time remaining 38 seconds
  Simulation 99.9 percent complete. Average dt  0.143 seconds
  Time remaining 33 seconds
  Simulation 99.9 percent complete. Average dt  0.143 seconds
  Time remaining 29 seconds
  Simulation 99.9 percent complete. Average dt  0.146 seconds
  Time remaining 23 seconds
  Simulation 99.9 percent complete. Average dt  0.143 seconds
  Time remaining 19 seconds
  Simulation 99.9 percent complete. Average dt  0.146 seconds
  Time remaining 14 seconds
  Simulation100.0 percent complete. Average dt  0.143 seconds
  Time remaining 10 seconds
  Simulation100.0 percent complete. Average dt  0.143 seconds
  Time remaining  6 seconds
  Simulation100.0 percent complete. Average dt  0.143 seconds
  Time remaining  1 seconds
   Duration   :   23204.7968750000      seconds
   Timesteps  :      433466
   Average dt :  0.149492693775290      seconds
   Unit speed :  5.037939193743551E-006 seconds/1
  End of program xbeach
Processing time step 0
Processing time step 100
Processing time step 200
Processing time step 300
Processing time step 400
Processing time step 500
Processing time step 600
Processing time step 700
Processing time step 800
Processing time step 900
Processing time step 1000
Processing time step 1100
Processing time step 1200
Processing time step 1300
Processing time step 1400
Processing time step 1500
Processing time step 1600
Processing time step 1700
Processing time step 1800
Processing time step 1900
Processing time step 2000
Processing time step 2100
Processing time step 2200
Processing time step 2300
Processing time step 2400
Processing time step 2500
Processing time step 2600
Processing time step 2700
Processing time step 2800
Processing time step 2900
Processing time step 3000
Processing time step 3100
Processing time step 3200
Processing time step 3300
Processing time step 3400
Processing time step 3500
Processing time step 3600
Processing time step 3700
Processing time step 3800
Processing time step 3900
Processing time step 4000
Processing time step 4100
Processing time step 4200
Processing time step 4300
Processing time step 4400
Processing time step 4500
Processing time step 4600
Processing time step 4700
Processing time step 4800
Processing time step 4900
Processing time step 5000
Processing time step 5100
Processing time step 5200
Processing time step 5300
Processing time step 5400
Processing time step 5500
Processing time step 5600
Processing time step 5700
Processing time step 5800
Processing time step 5900
Processing time step 6000
Processing time step 6100
Processing time step 6200
Processing time step 6300
Processing time step 6400
Processing time step 6500
Processing time step 6600
Processing time step 6700
Processing time step 6800
Processing time step 6900
Processing time step 7000
Processing time step 7100
Processing time step 7200
Processing time step 7300
Processing time step 7400
Processing time step 7500
Processing time step 7600
Processing time step 7700
Processing time step 7800
Processing time step 7900
Processing time step 8000
Processing time step 8100
Processing time step 8200
Processing time step 8300
Processing time step 8400
Processing time step 8500
Processing time step 8600
Processing time step 8700
Processing time step 8800
Processing time step 8900
Processing time step 9000
Processing time step 9100
Processing time step 9200
Processing time step 9300
Processing time step 9400
Processing time step 9500
Processing time step 9600
Processing time step 9700
Processing time step 9800
Processing time step 9900
Processing time step 10000
Processing time step 10100
Processing time step 10200
Processing time step 10300
Processing time step 10400
Processing time step 10500
Processing time step 10600
Processing time step 10700
Processing time step 10800
Processing erosion scarps...
Processing time step 60
Processing time step 70
Processing time step 80
Processing time step 90
Processing time step 100
Processing time step 110
Processing time step 120
Processing time step 130
Processing time step 140
Processing time step 150
Processing time step 160
Processing time step 170
Processing time step 180
Processing time step 190
Processing time step 200
Processing time step 210
Processing time step 220
Processing time step 230
Processing time step 240
Processing time step 250
Processing time step 260
Processing time step 270
Processing time step 280
Processing time step 290
Processing time step 300
Processing time step 310
Processing time step 320
Processing time step 330
Processing time step 340
Processing time step 350
Processing time step 360
Processing time step 370
Processing time step 380
Processing time step 390
Processing time step 400
Processing time step 410
Processing time step 420
Processing time step 430
Processing time step 440
Processing time step 450
Processing time step 460
Processing time step 470
Processing time step 480
Processing time step 490
Processing time step 500
Processing time step 510
Processing time step 520
Processing time step 530
Processing time step 540
Processing time step 550
Processing time step 560
Processing time step 570
Processing time step 580
Processing time step 590
Processing time step 600
Processing time step 610
Processing time step 620
Processing time step 630
Processing time step 640
Processing time step 650
Processing time step 660
Processing time step 670
Processing time step 680
Processing time step 690
Processing time step 700
Processing time step 710
Processing time step 720
Processing BSD for time: 0.0 hrs
Processing BSD for time: 5.0 hrs
Processing BSD for time: 10.0 hrs
Processing BSD for time: 15.0 hrs
Processing BSD for time: 20.0 hrs
Processing BSD for time: 25.0 hrs
Processing BSD for time: 30.0 hrs
Processing BSD for time: 35.0 hrs
Processing BSD for time: 40.0 hrs
Processing BSD for time: 45.0 hrs
Processing BSD for time: 50.0 hrs
Processing BSD for time: 55.0 hrs
Processing BSD for time: 60.0 hrs
Processing BSD for time: 65.0 hrs
Processing BSD for time: 70.0 hrs
Processing BSD for time: 75.0 hrs
Processing BSD for time: 80.0 hrs
Processing BSD for time: 85.0 hrs
Processing BSD for time: 90.0 hrs
Processing BSD for time: 95.0 hrs
Processing BSD for time: 100.0 hrs
Processing BSD for time: 105.0 hrs
Processing BSD for time: 110.0 hrs
Processing BSD for time: 115.0 hrs
Processing BSD for time: 120.0 hrs
Processing BSD for time: 125.0 hrs
Processing BSD for time: 130.0 hrs
Processing BSD for time: 135.0 hrs
Processing BSD for time: 140.0 hrs
Processing BSD for time: 145.0 hrs
Processing BSD for time: 150.0 hrs
Processing BSD for time: 155.0 hrs
Processing BSD for time: 160.0 hrs
Processing BSD for time: 165.0 hrs
Processing BSD for time: 170.0 hrs
Processing BSD for time: 175.0 hrs
Processing BSD for time: 180.0 hrs
    FID                        geometry
0     0  POINT (343056.210 6269263.840)
1     1  POINT (343035.340 6269222.380)
2     2  POINT (343011.680 6269182.120)
3     3  POINT (342988.360 6269141.540)
4     4  POINT (342968.400 6269099.260)
5     5  POINT (342948.820 6269056.790)
6     6  POINT (342932.510 6269012.920)
7     7  POINT (342913.650 6268970.380)
8     8  POINT (342895.130 6268927.880)
9     9  POINT (342874.080 6268886.600)
10   10  POINT (342853.300 6268845.200)
11   11  POINT (342832.730 6268803.600)
12   12  POINT (342812.320 6268761.710)
13   13  POINT (342792.070 6268719.470)
14   14  POINT (342774.700 6268675.770)
15   15  POINT (342754.680 6268632.830)
16   16  POINT (342734.760 6268589.580)
17   17  POINT (342720.520 6268543.970)
18   18  POINT (342703.790 6268499.220)
19   19  POINT (342690.350 6268453.330)
20   20  POINT (342674.630 6268408.390)
21   21  POINT (342659.490 6268363.320)
22   22  POINT (342645.000 6268318.160)
23   23  POINT (342631.340 6268272.960)
24   24  POINT (342615.430 6268228.220)
25   25  POINT (342600.360 6268182.690)
26   26  POINT (342586.150 6268136.400)
27   27  POINT (342576.080 6268089.020)
28   28  POINT (342563.720 6268042.320)
29   29  POINT (342548.950 6267996.380)
30   30  POINT (342534.320 6267950.950)
31   31  POINT (342522.760 6267905.000)
32   32  POINT (342511.760 6267858.680)
33   33  POINT (342506.110 6267811.340)
34   34  POINT (342493.540 6267764.450)
35   35  POINT (342486.250 6267716.800)
36   36  POINT (342481.880 6267668.790)
37   37  POINT (342478.100 6267620.620)
38   38  POINT (342462.630 6267427.150)
39   39  POINT (342461.150 6267329.460)
40   40  POINT (342482.080 6267042.110)
41   41  POINT (342487.210 6266994.350)
42   42  POINT (342492.480 6266946.280)
43   43  POINT (342500.360 6266898.390)
44   44  POINT (342511.260 6266850.880)
45   45  POINT (342520.920 6266803.150)
46   46  POINT (342532.030 6266755.940)
47   47  POINT (342542.410 6266708.410)
48   48  POINT (342556.290 6266661.540)
49   49  POINT (342568.450 6266614.450)
50   50  POINT (342582.970 6266568.530)
51   51  POINT (342595.490 6266522.520)
52   52  POINT (342610.340 6266477.810)
53   53  POINT (342625.450 6266433.910)
54   54  POINT (342640.800 6266390.920)
55   55  POINT (342656.170 6266348.840)
56   56  POINT (342675.100 6266309.000)
57   57  POINT (342693.310 6266269.980)
58   58  POINT (342712.560 6266232.230)
59   59  POINT (342725.250 6266193.480)
**********************Running initialization module for time: 2020-05-03 00:00:00 GMT **********************
**************** Initializing regional forecast for time: 2020-05-03 00:00:00 GMT ****************
*********** Initializing hotspot forecast for Narrabeen site in NSW... ***********
*********Running NSSDownload module for time: 2020-05-03 00:00:00 GMT *********
*********Running WaveDownload module for time: 2020-05-03 00:00:00 GMT *********
*********Running PreProcessRegional module for time: 2020-05-03 00:00:00 GMT *********
*********Running PreProcessXBeach module for time: 2020-05-03 00:00:00 GMT *********
*********Running PreProcessXBeach module for time: 2020-05-03 00:00:00 GMT *********
*********Running PostProcessXBeach module for time: 2020-05-03 00:00:00 GMT *********
*********Running IndicatorsXBeach module for time: 2020-05-03 00:00:00 GMT *********
